MESA: Linking to LLVM resource bind packing.
Vulkan SDK Header Version: 182

Vulkan Instance Extensions: 
- VK_KHR_device_group_creation (0.0.1)
- VK_KHR_external_fence_capabilities (0.0.1)
- VK_KHR_external_memory_capabilities (0.0.1)
- VK_KHR_external_semaphore_capabilities (0.0.1)
- VK_KHR_get_physical_device_properties2 (0.0.2)
- VK_KHR_get_surface_capabilities2 (0.0.1)
- VK_KHR_surface (0.0.25)
- VK_KHR_surface_protected_capabilities (0.0.1)
- VK_KHR_xcb_surface (0.0.6)
- VK_KHR_xlib_surface (0.0.6)
- VK_EXT_debug_report (0.0.10)
- VK_EXT_debug_utils (0.0.2)

Vulkan Instance Layers: 
- VK_LAYER_NV_optimus (1.3.236) : NVIDIA Optimus layer
- VK_LAYER_LUNARG_device_simulation (1.2.182) : LunarG device simulation layer
- VK_LAYER_LUNARG_api_dump (1.2.182) : LunarG API dump layer
- VK_LAYER_KHRONOS_validation (1.2.182) : Khronos Validation Layer
- VK_LAYER_LUNARG_monitor (1.2.182) : Execution Monitoring Layer
- VK_LAYER_LUNARG_screenshot (1.2.182) : LunarG image capture layer
- VK_LAYER_LUNARG_gfxreconstruct (1.2.182) : GFXReconstruct Capture Layer Version 0.9.8
- VK_LAYER_KHRONOS_synchronization2 (1.2.182) : Khronos Synchronization2 layer

Vulkan Devices: 
- [0] UnknownVendor 'llvmpipe (LLVM 10.0.0, 256 bits)' (CPU: vulkan 1.3.254, driver llvmpipe Mesa 23.2.0-devel (git-45f329e0bb) (LLVM 10.0.0) - 0.0.1)

Setting Device [0]:
Getting ray tracing pipeline properties...
- loading '../assets/textures/white.png'... (1 x 1 x 3) 3.8836e-05s
RTV: Creating device buffer Vertices of size 9835452
LVP: vkBuffer size 9835452 created at 0x55ab10b2c358
RTV: New vkBuffer created at 0x55ab10b2c358
LLVM: llvmpipe_resource_bind_backing: pipe_screen 0x55ab106cf6f0; pipe_resource 0x55ab11535eb0; llvmpipe_resource 0x55ab11535eb0; pipe_memory_allocation 0x7f596ecc1000;
LVP: Binding lvp_buffer 0x55ab108c99e0: buffer->bo: 0x55ab11535eb0; buffer->pmem: 0x7f596ecc1000; memory-offset: 0;


        *** GPGPU-Sim Simulator Version 4.0.0  [build gpgpu-sim_git-commit-4930c4c3cdbc4296555441708ee65862bf1eac8a_modified_0.0] ***


GPGPU-Sim PTX: simulation mode -1058838766 (can change with PTX_SIM_MODE_FUNC environment variable:
               1=functional simulation only, 0=detailed performance simulator)
GPGPU-Sim PTX: overriding embedded ptx with ptx file (PTX_SIM_USE_PTX_FILE is set)
GPGPU-Sim: Configuration options:

-save_embedded_ptx                      0 # saves ptx files embedded in binary as <n>.ptx
-keep                                   0 # keep intermediate files created by GPGPU-Sim when interfacing with external programs
-gpgpu_ptx_save_converted_ptxplus                    0 # Saved converted ptxplus to a file
-gpgpu_occupancy_sm_number                   75 # The SM number to pass to ptxas when getting register usage for computing GPU occupancy. This parameter is required in the config.
-ptx_opcode_latency_int      4,13,4,5,145,32 # Opcode latencies for integers <ADD,MAX,MUL,MAD,DIV,SHFL>Default 1,1,19,25,145,32
-ptx_opcode_latency_fp          4,13,4,5,39 # Opcode latencies for single precision floating points <ADD,MAX,MUL,MAD,DIV>Default 1,1,1,1,30
-ptx_opcode_latency_dp         8,19,8,8,330 # Opcode latencies for double precision floating points <ADD,MAX,MUL,MAD,DIV>Default 8,8,8,8,335
-ptx_opcode_latency_sfu                  100 # Opcode latencies for SFU instructionsDefault 8
-ptx_opcode_latency_tesnor                   64 # Opcode latencies for Tensor instructionsDefault 64
-ptx_opcode_initiation_int          2,2,2,2,8,4 # Opcode initiation intervals for integers <ADD,MAX,MUL,MAD,DIV,SHFL>Default 1,1,4,4,32,4
-ptx_opcode_initiation_fp            2,2,2,2,4 # Opcode initiation intervals for single precision floating points <ADD,MAX,MUL,MAD,DIV>Default 1,1,1,1,5
-ptx_opcode_initiation_dp          4,4,4,4,130 # Opcode initiation intervals for double precision floating points <ADD,MAX,MUL,MAD,DIV>Default 8,8,8,8,130
-ptx_opcode_initiation_sfu                    8 # Opcode initiation intervals for sfu instructionsDefault 8
-ptx_opcode_initiation_tensor                   64 # Opcode initiation intervals for tensor instructionsDefault 64
-cdp_latency         7200,8000,100,12000,1600 # CDP API latency <cudaStreamCreateWithFlags, cudaGetParameterBufferV2_init_perWarp, cudaGetParameterBufferV2_perKernel, cudaLaunchDeviceV2_init_perWarp, cudaLaunchDevicV2_perKernel>Default 7200,8000,100,12000,1600
-network_mode                           2 # Interconnection network mode
-inter_config_file                   mesh # Interconnection network config file
-icnt_in_buffer_limit                  512 # in_buffer_limit
-icnt_out_buffer_limit                  512 # out_buffer_limit
-icnt_subnets                           2 # subnets
-icnt_arbiter_algo                      1 # arbiter_algo
-icnt_verbose                           0 # inct_verbose
-icnt_grant_cycles                      1 # grant_cycles
-gpgpu_ptx_use_cuobjdump                    1 # Use cuobjdump to extract ptx and sass from binaries
-gpgpu_experimental_lib_support                    0 # Try to extract code from cuda libraries [Broken because of unknown cudaGetExportTable]
-checkpoint_option                      0 #  checkpointing flag (0 = no checkpoint)
-checkpoint_kernel                      1 #  checkpointing during execution of which kernel (1- 1st kernel)
-checkpoint_CTA                         0 #  checkpointing after # of CTA (< less than total CTA)
-resume_option                          0 #  resume flag (0 = no resume)
-resume_kernel                          0 #  Resume from which kernel (1= 1st kernel)
-resume_CTA                             0 #  resume from which CTA 
-checkpoint_CTA_t                       0 #  resume from which CTA 
-checkpoint_insn_Y                      0 #  resume from which CTA 
-gpgpu_ptx_convert_to_ptxplus                    0 # Convert SASS (native ISA) to ptxplus and run ptxplus
-gpgpu_ptx_force_max_capability                   75 # Force maximum compute capability
-gpgpu_ptx_inst_debug_to_file                    0 # Dump executed instructions' debug information to file
-gpgpu_ptx_inst_debug_file       inst_debug.txt # Executed instructions' debug output file
-gpgpu_ptx_inst_debug_thread_uid                    1 # Thread UID for executed instructions' debug output
-gpgpu_simd_model                       1 # 1 = post-dominator
-gpgpu_simd_rec_time_out                   -1 # -1 = no reconvergence time out
-gpgpu_simd_rec_size                    6 # number of physical entries in the reconvergence table
-gpgpu_simd_st_size                     6 # number of physical entries in the splits table
-gpgpu_simd_rec_replacement                    0 # reconvergence table replacement policy
-gpgpu_simd_st_replacement                    0 # splits table replacement policy
-gpgpu_shader_core_pipeline              1024:32 # shader core pipeline config, i.e., {<nthread>:<warpsize>}
-gpgpu_tex_cache:l1  N:4:128:256,L:R:m:N:L,T:512:8,128:2 # per-shader L1 texture cache  (READ-ONLY) config  {<nsets>:<bsize>:<assoc>,<rep>:<wr>:<alloc>:<wr_alloc>,<mshr>:<N>:<merge>,<mq>:<rf>}
-gpgpu_const_cache:l1 N:128:64:8,L:R:f:N:L,S:2:64,4 # per-shader L1 constant memory cache  (READ-ONLY) config  {<nsets>:<bsize>:<assoc>,<rep>:<wr>:<alloc>:<wr_alloc>,<mshr>:<N>:<merge>,<mq>} 
-gpgpu_rt_cache:l1   S:32:128:16,L:R:m:L:P,A:256:256,32:0,32 # per-shader L1 constant memory cache  (READ-ONLY) config  {<nsets>:<bsize>:<assoc>,<rep>:<wr>:<alloc>:<wr_alloc>,<mshr>:<N>:<merge>,<mq>} 
-gpgpu_rt_use_l1                        1 # use existing L1 cache instead of dedicated L0 cache 
-gpgpu_rt_perfect_mem                    0 # assume 0 latency BVH accesses 
-gpgpu_rt_coherence_engine                    0 # enable coherency engine (ray sorting) 
-gpgpu_rt_coherence_engine_config 100,10,16,g,0,3,2,0.25 # max cycles, hash 
-gpgpu_rt_disable_rt_cache                    0 # bypass RT cache and connect RT unit directly to interconnect 
-gpgpu_rt_max_warps                     4 # max number of warps concurrently in one rt core 
-gpgpu_rt_max_mshr                     64 # max number of MSHR entries in RT unit 
-gpgpu_rt_coalesce_warps                    0 # try to coalesce memory requests between warps 
-gpgpu_rt_intersection_latency        4,8,8,4,8,8,8 # latency of pipelined intersection tests (7 types)
-gpgpu_rt_intersection_table_type                    0 # type of intersection table
-gpgpu_cache:il1     N:64:128:16,L:R:f:N:L,S:2:48,4 # shader L1 instruction cache config  {<nsets>:<bsize>:<assoc>,<rep>:<wr>:<alloc>:<wr_alloc>,<mshr>:<N>:<merge>,<mq>} 
-gpgpu_cache:dl1     S:1:128:512,L:L:s:N:L,A:256:8,16:0,32 # per-shader L1 data cache config  {<nsets>:<bsize>:<assoc>,<rep>:<wr>:<alloc>:<wr_alloc>,<mshr>:<N>:<merge>,<mq> | none}
-gpgpu_l1_banks                         4 # The number of L1 cache banks
-gpgpu_l1_banks_byte_interleaving                   32 # l1 banks byte interleaving granularity
-gpgpu_l1_banks_hashing_function                    0 # l1 banks hashing function
-gpgpu_l1_latency                      20 # L1 Hit Latency
-gpgpu_smem_latency                    20 # smem Latency
-gpgpu_cache:dl1PrefL1                 none # per-shader L1 data cache config  {<nsets>:<bsize>:<assoc>,<rep>:<wr>:<alloc>:<wr_alloc>,<mshr>:<N>:<merge>,<mq> | none}
-gpgpu_cache:dl1PrefShared                 none # per-shader L1 data cache config  {<nsets>:<bsize>:<assoc>,<rep>:<wr>:<alloc>:<wr_alloc>,<mshr>:<N>:<merge>,<mq> | none}
-gpgpu_gmem_skip_L1D                    0 # global memory access skip L1D cache (implements -Xptxas -dlcm=cg, default=no skip)
-gpgpu_perfect_mem                      0 # enable perfect memory mode (no cache miss)
-n_regfile_gating_group                    4 # group of lanes that should be read/written together)
-gpgpu_clock_gated_reg_file                    0 # enable clock gated reg file for power calculations
-gpgpu_clock_gated_lanes                    0 # enable clock gated lanes for power calculations
-gpgpu_shader_registers                32768 # Number of registers per shader core. Limits number of concurrent CTAs. (default 8192)
-gpgpu_registers_per_block                32768 # Maximum number of registers per CTA. (default 8192)
-gpgpu_ignore_resources_limitation                    0 # gpgpu_ignore_resources_limitation (default 0)
-gpgpu_shader_cta                      16 # Maximum number of concurrent CTAs in shader (default 8)
-gpgpu_num_cta_barriers                   16 # Maximum number of named barriers per CTA (default 16)
-gpgpu_n_clusters                       2 # number of processing clusters
-gpgpu_n_cores_per_cluster                    1 # number of simd cores per cluster
-gpgpu_n_cluster_ejection_buffer_size                   32 # number of packets in ejection buffer
-gpgpu_n_ldst_response_buffer_size                    2 # number of response packets in ld/st unit ejection buffer
-gpgpu_shmem_per_block                65536 # Size of shared memory per thread block or CTA (default 48kB)
-gpgpu_shmem_size                   65536 # Size of shared memory per shader core (default 16kB)
-gpgpu_adaptive_cache_config                    0 # adaptive_cache_config
-gpgpu_shmem_sizeDefault                65536 # Size of shared memory per shader core (default 16kB)
-gpgpu_shmem_size_PrefL1                16384 # Size of shared memory per shader core (default 16kB)
-gpgpu_shmem_size_PrefShared                16384 # Size of shared memory per shader core (default 16kB)
-gpgpu_shmem_num_banks                   32 # Number of banks in the shared memory in each shader core (default 16)
-gpgpu_shmem_limited_broadcast                    0 # Limit shared memory to do one broadcast per cycle (default on)
-gpgpu_shmem_warp_parts                    1 # Number of portions a warp is divided into for shared memory bank conflict check 
-gpgpu_mem_unit_ports                    1 # The number of memory transactions allowed per core cycle
-gpgpu_shmem_warp_parts                    1 # Number of portions a warp is divided into for shared memory bank conflict check 
-gpgpu_warpdistro_shader                   -1 # Specify which shader core to collect the warp size distribution from
-gpgpu_warp_issue_shader                    0 # Specify which shader core to collect the warp issue distribution from
-gpgpu_local_mem_map                    1 # Mapping from local memory space address to simulated GPU physical address space (default = enabled)
-gpgpu_num_reg_banks                   16 # Number of register banks (default = 8)
-gpgpu_reg_bank_use_warp_id                    0 # Use warp ID in mapping registers to banks (default = off)
-gpgpu_sub_core_model                    1 # Sub Core Volta/Pascal model (default = off)
-gpgpu_enable_specialized_operand_collector                    0 # enable_specialized_operand_collector
-gpgpu_operand_collector_num_units_sp                    4 # number of collector units (default = 4)
-gpgpu_operand_collector_num_units_dp                    0 # number of collector units (default = 0)
-gpgpu_operand_collector_num_units_sfu                    4 # number of collector units (default = 4)
-gpgpu_operand_collector_num_units_int                    0 # number of collector units (default = 0)
-gpgpu_operand_collector_num_units_tensor_core                    4 # number of collector units (default = 4)
-gpgpu_operand_collector_num_units_mem                    2 # number of collector units (default = 2)
-gpgpu_operand_collector_num_units_gen                    8 # number of collector units (default = 0)
-gpgpu_operand_collector_num_in_ports_sp                    1 # number of collector unit in ports (default = 1)
-gpgpu_operand_collector_num_in_ports_dp                    0 # number of collector unit in ports (default = 0)
-gpgpu_operand_collector_num_in_ports_sfu                    1 # number of collector unit in ports (default = 1)
-gpgpu_operand_collector_num_in_ports_int                    0 # number of collector unit in ports (default = 0)
-gpgpu_operand_collector_num_in_ports_tensor_core                    1 # number of collector unit in ports (default = 1)
-gpgpu_operand_collector_num_in_ports_mem                    1 # number of collector unit in ports (default = 1)
-gpgpu_operand_collector_num_in_ports_gen                    8 # number of collector unit in ports (default = 0)
-gpgpu_operand_collector_num_out_ports_sp                    1 # number of collector unit in ports (default = 1)
-gpgpu_operand_collector_num_out_ports_dp                    0 # number of collector unit in ports (default = 0)
-gpgpu_operand_collector_num_out_ports_sfu                    1 # number of collector unit in ports (default = 1)
-gpgpu_operand_collector_num_out_ports_int                    0 # number of collector unit in ports (default = 0)
-gpgpu_operand_collector_num_out_ports_tensor_core                    1 # number of collector unit in ports (default = 1)
-gpgpu_operand_collector_num_out_ports_mem                    1 # number of collector unit in ports (default = 1)
-gpgpu_operand_collector_num_out_ports_gen                    8 # number of collector unit in ports (default = 0)
-gpgpu_coalesce_arch                   75 # Coalescing arch (GT200 = 13, Fermi = 20)
-gpgpu_num_sched_per_core                    4 # Number of warp schedulers per core
-gpgpu_max_insn_issue_per_warp                    1 # Max number of instructions that can be issued per warp in one cycle by scheduler (either 1 or 2)
-gpgpu_dual_issue_diff_exec_units                    1 # should dual issue use two different execution unit resources (Default = 1)
-gpgpu_simt_core_sim_order                    1 # Select the simulation order of cores in a cluster (0=Fix, 1=Round-Robin)
-gpgpu_pipeline_widths 4,0,4,4,4,4,0,4,4,4,8,4,4,4,4 # Pipeline widths ID_OC_SP,ID_OC_DP,ID_OC_INT,ID_OC_SFU,ID_OC_MEM,OC_EX_SP,OC_EX_DP,OC_EX_INT,OC_EX_SFU,OC_EX_MEM,EX_WB,ID_OC_TENSOR_CORE,OC_EX_TENSOR_CORE,ID_OC_RT,OC_EX_RT
-gpgpu_tensor_core_avail                    1 # Tensor Core Available (default=0)
-gpgpu_num_sp_units                     4 # Number of SP units (default=1)
-gpgpu_num_dp_units                     0 # Number of DP units (default=0)
-gpgpu_num_int_units                    4 # Number of INT units (default=0)
-gpgpu_num_sfu_units                    4 # Number of SF units (default=1)
-gpgpu_num_tensor_core_units                    4 # Number of tensor_core units (default=1)
-gpgpu_num_rt_core_units                    1 # Number of rt core units (default=1)
-gpgpu_num_mem_units                    1 # Number if ldst units (default=1) WARNING: not hooked up to anything
-gpgpu_scheduler                      gto # Scheduler configuration: < lrr | gto | two_level_active > If two_level_active:<num_active_warps>:<inner_prioritization>:<outer_prioritization>For complete list of prioritization values see shader.h enum scheduler_prioritization_typeDefault: gto
-gpgpu_concurrent_kernel_sm                    0 # Support concurrent kernels on a SM (default = disabled)
-gpgpu_perfect_inst_const_cache                    1 # perfect inst and const cache mode, so all inst and const hits in the cache(default = disabled)
-gpgpu_inst_fetch_throughput                    4 # the number of fetched intruction per warp each cycle
-gpgpu_reg_file_port_throughput                    2 # the number ports of the register file
-specialized_unit_1         0,4,4,4,4,BRA # specialized unit config {<enabled>,<num_units>:<latency>:<initiation>,<ID_OC_SPEC>:<OC_EX_SPEC>,<NAME>}
-specialized_unit_2         0,4,4,4,4,BRA # specialized unit config {<enabled>,<num_units>:<latency>:<initiation>,<ID_OC_SPEC>:<OC_EX_SPEC>,<NAME>}
-specialized_unit_3         0,4,4,4,4,BRA # specialized unit config {<enabled>,<num_units>:<latency>:<initiation>,<ID_OC_SPEC>:<OC_EX_SPEC>,<NAME>}
-specialized_unit_4         0,4,4,4,4,BRA # specialized unit config {<enabled>,<num_units>:<latency>:<initiation>,<ID_OC_SPEC>:<OC_EX_SPEC>,<NAME>}
-specialized_unit_5         0,4,4,4,4,BRA # specialized unit config {<enabled>,<num_units>:<latency>:<initiation>,<ID_OC_SPEC>:<OC_EX_SPEC>,<NAME>}
-specialized_unit_6         0,4,4,4,4,BRA # specialized unit config {<enabled>,<num_units>:<latency>:<initiation>,<ID_OC_SPEC>:<OC_EX_SPEC>,<NAME>}
-specialized_unit_7         0,4,4,4,4,BRA # specialized unit config {<enabled>,<num_units>:<latency>:<initiation>,<ID_OC_SPEC>:<OC_EX_SPEC>,<NAME>}
-specialized_unit_8         0,4,4,4,4,BRA # specialized unit config {<enabled>,<num_units>:<latency>:<initiation>,<ID_OC_SPEC>:<OC_EX_SPEC>,<NAME>}
-gpgpu_perf_sim_memcpy                    1 # Fill the L2 cache on memcpy
-gpgpu_simple_dram_model                    0 # simple_dram_model with fixed latency and BW
-gpgpu_dram_scheduler                    1 # 0 = fifo, 1 = FR-FCFS (defaul)
-gpgpu_dram_partition_queues          64:64:64:64 # i2$:$2d:d2$:$2i
-l2_ideal                               0 # Use a ideal L2 cache that always hit
-gpgpu_cache:dl2     S:64:128:16,L:B:m:L:P,A:192:4,32:0,32 # unified banked L2 data cache config  {<nsets>:<bsize>:<assoc>,<rep>:<wr>:<alloc>:<wr_alloc>,<mshr>:<N>:<merge>,<mq>}
-gpgpu_cache:dl2_texture_only                    0 # L2 cache used for texture only
-gpgpu_n_mem                            1 # number of memory modules (e.g. memory controllers) in gpu
-gpgpu_n_sub_partition_per_mchannel                    1 # number of memory subpartition in each memory module
-gpgpu_n_mem_per_ctrlr                    1 # number of memory chips per memory controller
-gpgpu_memlatency_stat                   14 # track and display latency statistics 0x2 enables MC, 0x4 enables queue logs
-gpgpu_frfcfs_dram_sched_queue_size                   64 # 0 = unlimited (default); # entries per chip
-gpgpu_dram_return_queue_size                  192 # 0 = unlimited (default); # entries per chip
-gpgpu_dram_buswidth                    2 # default = 4 bytes (8 bytes per cycle at DDR)
-gpgpu_dram_burst_length                    8 # Burst length of each DRAM request (default = 4 data bus cycle)
-dram_data_command_freq_ratio                    2 # Frequency ratio between DRAM data bus and command bus (default = 2 times, i.e. DDR)
-gpgpu_dram_timing_opt nbk=16:CCD=4:RRD=10:RCD=20:RAS=50:RP=20:RC=62: CL=20:WL=8:CDLR=9:WR=20:nbkgrp=4:CCDL=4:RTPL=4 # DRAM timing parameters = {nbk:tCCD:tRRD:tRCD:tRAS:tRP:tRC:CL:WL:tCDLR:tWR:nbkgrp:tCCDL:tRTPL}
-gpgpu_l2_rop_latency                  160 # ROP queue latency (default 85)
-dram_latency                         100 # DRAM latency (default 30)
-dram_dual_bus_interface                    0 # dual_bus_interface (default = 0) 
-dram_bnk_indexing_policy                    0 # dram_bnk_indexing_policy (0 = normal indexing, 1 = Xoring with the higher bits) (Default = 0)
-dram_bnkgrp_indexing_policy                    1 # dram_bnkgrp_indexing_policy (0 = take higher bits, 1 = take lower bits) (Default = 0)
-dram_seperate_write_queue_enable                    0 # Seperate_Write_Queue_Enable
-dram_write_queue_size             32:28:16 # Write_Queue_Size
-dram_elimnate_rw_turnaround                    0 # elimnate_rw_turnaround i.e set tWTR and tRTW = 0
-icnt_flit_size                        40 # icnt_flit_size
-gpgpu_mem_addr_mapping dramid@8;00000000.00000000.00000000.00000000.0000RRRR.RRRRRRRR.RBBBCCCC.BCCSSSSS # mapping memory address to dram model {dramid@<start bit>;<memory address map>}
-gpgpu_mem_addr_test                    0 # run sweep test to check address mapping for aliased address
-gpgpu_mem_address_mask                    1 # 0 = old addressing mask, 1 = new addressing mask, 2 = new add. mask + flipped bank sel and chip sel bits
-gpgpu_memory_partition_indexing                    0 # 0 = no indexing, 1 = bitwise xoring, 2 = IPoly, 3 = custom indexing
-gpuwattch_xml_file         gpuwattch.xml # GPUWattch XML file
-power_simulation_enabled                    0 # Turn on power simulator (1=On, 0=Off)
-power_per_cycle_dump                    0 # Dump detailed power output each cycle
-power_trace_enabled                    1 # produce a file for the power trace (1=On, 0=Off)
-power_trace_zlevel                     6 # Compression level of the power trace output log (0=no comp, 9=highest)
-steady_power_levels_enabled                    1 # produce a file for the steady power levels (1=On, 0=Off)
-steady_state_definition                  8:4 # allowed deviation:number of samples
-gpgpu_intermittent_stats                    0 # print intermittent stats
-gpgpu_intermittent_stats_freq                10000 # intermittent stats frequency
-gpgpu_max_cycle                        0 # terminates gpu simulation early (0 = no limit)
-gpgpu_max_insn                         0 # terminates gpu simulation early (0 = no limit)
-gpgpu_max_cta                          0 # terminates gpu simulation early (0 = no limit)
-gpgpu_max_completed_cta                    0 # terminates gpu simulation early (0 = no limit)
-gpgpu_runtime_stat                   500 # display runtime statistics such as dram utilization {<freq>:<flag>}
-liveness_message_freq                    1 # Minimum number of seconds between simulation liveness messages (0 = always print)
-gpgpu_compute_capability_major                    7 # Major compute capability version number
-gpgpu_compute_capability_minor                    5 # Minor compute capability version number
-gpgpu_flush_l1_cache                    1 # Flush L1 cache at the end of each kernel call
-gpgpu_flush_l2_cache                    0 # Flush L2 cache at the end of each kernel call
-gpgpu_deadlock_detect                    1 # Stop the simulation at deadlock (1=on (default), 0=off)
-gpgpu_ptx_instruction_classification                    1 # if enabled will classify ptx instruction types per kernel (Max 255 kernels now)
-gpgpu_ptx_sim_mode                     0 # Select between Performance (default) or Functional simulation (1)
-gpgpu_clock_domains 1365.0:1365.0:1365.0:3500.0 # Clock Domain Frequencies in MhZ {<Core Clock>:<ICNT Clock>:<L2 Clock>:<DRAM Clock>}
-gpgpu_max_concurrent_kernel                    8 # maximum kernels that can run concurrently on GPU
-gpgpu_cflog_interval                    0 # Interval between each snapshot in control flow logger
-visualizer_enabled                     1 # Turn on visualizer output (1=On, 0=Off)
-visualizer_outputfile     Characterization # Specifies the output log file for visualizer
-visualizer_zlevel                      6 # Compression level of the visualizer output log (0=no comp, 9=highest)
-gpgpu_stack_size_limit                 1024 # GPU thread stack size
-gpgpu_heap_size_limit              8388608 # GPU malloc heap size 
-gpgpu_runtime_sync_depth_limit                    2 # GPU device runtime synchronize depth
-gpgpu_runtime_pending_launch_count_limit                 2048 # GPU device runtime pending launch count
-trace_enabled                          0 # Turn on traces
-trace_components                    none # comma seperated list of traces to enable. Complete list found in trace_streams.tup. Default none
-trace_sampling_core                    0 # The core which is printed using CORE_DPRINTF. Default 0
-trace_sampling_memory_partition                   -1 # The memory partition which is printed using MEMPART_DPRINTF. Default -1 (i.e. all)
-enable_ptx_file_line_stats                    1 # Turn on PTX source line statistic profiling. (1 = On)
-ptx_line_stats_filename gpgpu_inst_stats.txt # Output file for PTX source line statistics.
-gpgpu_kernel_launch_latency                 5000 # Kernel launch latency in cycles. Default: 0
-gpgpu_cdp_enabled                      0 # Turn on CDP
-gpgpu_TB_launch_latency                    0 # thread block launch latency in cycles. Default: 0
-gpgpu_max_simulated_rt_kernels                    1 # Max simulated kernels, used to limit how many frames we render. Default: 0
-selected_coordinates /home/ggc/ray_tracing/Predictor/data/coordinates//chunk_3_1.coords # Filepath of the coordinates list to trace
Streaming cache with 8192 mshr
GPGPU-Sim: Ray Coherence Engine Settings:
	Enabled: No
	Max cycles: 100
	Max packets: 16
	Sorting hash: grid-spherical
	Bits: 3-2
DRAM Timing Options:
nbk                                    16 # number of banks
CCD                                     4 # column to column delay
RRD                                    10 # minimal delay between activation of rows in different banks
RCD                                    20 # row to column delay
RAS                                    50 # time needed to activate row
RP                                     20 # time needed to precharge (deactivate) row
RC                                     62 # row cycle time
CDLR                                    9 # switching from write to read (changes tWTR)
WR                                     20 # last data-in to row precharge
CL                                     20 # CAS latency
WL                                      8 # Write latency
nbkgrp                                  4 # number of bank groups
CCDL                                    4 # column to column delay between accesses to different bank groups
RTPL                                    4 # read to precharge delay between accesses to different bank groups
Total number of memory sub partition = 1
addr_dec_mask[CHIP]  = 0000000000000000 	high:64 low:0
addr_dec_mask[BK]    = 0000000000007080 	high:15 low:7
addr_dec_mask[ROW]   = 000000000fff8000 	high:28 low:15
addr_dec_mask[COL]   = 0000000000000f7f 	high:12 low:0
addr_dec_mask[BURST] = 000000000000001f 	high:5 low:0
sub_partition_id_mask = 0000000000000000
GPGPU-Sim uArch: clock freqs: 1365000000.000000:1365000000.000000:1365000000.000000:3500000000.000000
GPGPU-Sim uArch: clock periods: 0.00000000073260073260:0.00000000073260073260:0.00000000073260073260:0.00000000028571428571
*** Initializing Memory Statistics ***
GPGPU-Sim uArch: performance model initialization complete.
gpgpusim: binding gpgpusim buffer 0xc0000000 (size 9835452) to vulkan buffer 0x7f596ecc1000
LVP: gpgpusim buffer size 9835452 allocated at 0xc0000000
RTV: Bind buffer memory for vkBuffer 0x55ab10b2c358
LVP: vkBuffer size 9835452 created at 0x55ab12bf2fb8
RTV: New vkBuffer created at 0x55ab12bf2fb8
LLVM: llvmpipe_resource_bind_backing: pipe_screen 0x55ab106cf6f0; pipe_resource 0x55ab155d33f0; llvmpipe_resource 0x55ab155d33f0; pipe_memory_allocation 0x7f596db5d000;
LVP: Binding lvp_buffer 0x55ab155d3370: buffer->bo: 0x55ab155d33f0; buffer->pmem: 0x7f596db5d000; memory-offset: 0;
gpgpusim: binding gpgpusim buffer 0xc0961400 (size 9835452) to vulkan buffer 0x7f596db5d000
LVP: gpgpusim buffer size 9835452 allocated at 0xc0961400
RTV: Bind buffer memory for vkBuffer 0x55ab12bf2fb8
LVP: Finding mapped memory for mem 0x55ab155d3600: mem->pmem 0x7f596db5d000 
LVP: Identified at 0x7f596db5d000
LVP: Command Buffer:
	VK_CMD_COPY_BUFFER2
RTV: Creating device buffer Indices of size 5984256
LVP: vkBuffer size 5984256 created at 0x55ab12bf2fb8
RTV: New vkBuffer created at 0x55ab12bf2fb8
LLVM: llvmpipe_resource_bind_backing: pipe_screen 0x55ab106cf6f0; pipe_resource 0x55ab17b59f90; llvmpipe_resource 0x55ab17b59f90; pipe_memory_allocation 0x55ab17b5b000;
LVP: Binding lvp_buffer 0x55ab155d3600: buffer->bo: 0x55ab17b59f90; buffer->pmem: 0x55ab17b5b000; memory-offset: 0;
gpgpusim: binding gpgpusim buffer 0xc12c2800 (size 5984256) to vulkan buffer 0x55ab17b5b000
LVP: gpgpusim buffer size 5984256 allocated at 0xc12c2800
RTV: Bind buffer memory for vkBuffer 0x55ab12bf2fb8
LVP: vkBuffer size 5984256 created at 0x55ab17b585a8
RTV: New vkBuffer created at 0x55ab17b585a8
LLVM: llvmpipe_resource_bind_backing: pipe_screen 0x55ab106cf6f0; pipe_resource 0x55ab197e3320; llvmpipe_resource 0x55ab197e3320; pipe_memory_allocation 0x55ab197e4000;
LVP: Binding lvp_buffer 0x55ab17b59e60: buffer->bo: 0x55ab197e3320; buffer->pmem: 0x55ab197e4000; memory-offset: 0;
gpgpusim: binding gpgpusim buffer 0xc1877800 (size 5984256) to vulkan buffer 0x55ab197e4000
LVP: gpgpusim buffer size 5984256 allocated at 0xc1877800
RTV: Bind buffer memory for vkBuffer 0x55ab17b585a8
LVP: Finding mapped memory for mem 0x55ab197e3530: mem->pmem 0x55ab197e4000 
LVP: Identified at 0x55ab197e4000
LVP: Command Buffer:
	VK_CMD_COPY_BUFFER2
RTV: Creating device buffer Materials of size 15584
LVP: vkBuffer size 15584 created at 0x55ab17b585a8
RTV: New vkBuffer created at 0x55ab17b585a8
LLVM: llvmpipe_resource_bind_backing: pipe_screen 0x55ab106cf6f0; pipe_resource 0x55ab197e4000; llvmpipe_resource 0x55ab197e4000; pipe_memory_allocation 0x55ab197e5000;
LVP: Binding lvp_buffer 0x55ab197e3530: buffer->bo: 0x55ab197e4000; buffer->pmem: 0x55ab197e5000; memory-offset: 0;
gpgpusim: binding gpgpusim buffer 0xc1e2c800 (size 15584) to vulkan buffer 0x55ab197e5000
LVP: gpgpusim buffer size 15584 allocated at 0xc1e2c800
RTV: Bind buffer memory for vkBuffer 0x55ab17b585a8
LVP: vkBuffer size 15584 created at 0x55ab1b46c5d8
RTV: New vkBuffer created at 0x55ab1b46c5d8
LLVM: llvmpipe_resource_bind_backing: pipe_screen 0x55ab106cf6f0; pipe_resource 0x55ab197f7470; llvmpipe_resource 0x55ab197f7470; pipe_memory_allocation 0x55ab197f8000;
LVP: Binding lvp_buffer 0x55ab1b46c700: buffer->bo: 0x55ab197f7470; buffer->pmem: 0x55ab197f8000; memory-offset: 0;
gpgpusim: binding gpgpusim buffer 0xc1e30500 (size 15584) to vulkan buffer 0x55ab197f8000
LVP: gpgpusim buffer size 15584 allocated at 0xc1e30500
RTV: Bind buffer memory for vkBuffer 0x55ab1b46c5d8
LVP: Finding mapped memory for mem 0x55ab197f7680: mem->pmem 0x55ab197f8000 
LVP: Identified at 0x55ab197f8000
LVP: Command Buffer:
	VK_CMD_COPY_BUFFER2
RTV: Creating device buffer Offsets of size 3896
LVP: vkBuffer size 3896 created at 0x55ab1b46c5d8
RTV: New vkBuffer created at 0x55ab1b46c5d8
LLVM: llvmpipe_resource_bind_backing: pipe_screen 0x55ab106cf6f0; pipe_resource 0x55ab197f8000; llvmpipe_resource 0x55ab197f8000; pipe_memory_allocation 0x55ab197f9000;
LVP: Binding lvp_buffer 0x55ab197f7680: buffer->bo: 0x55ab197f8000; buffer->pmem: 0x55ab197f9000; memory-offset: 0;
gpgpusim: binding gpgpusim buffer 0xc1e34200 (size 3896) to vulkan buffer 0x55ab197f9000
LVP: gpgpusim buffer size 3896 allocated at 0xc1e34200
RTV: Bind buffer memory for vkBuffer 0x55ab1b46c5d8
LVP: vkBuffer size 3896 created at 0x55ab1980a798
RTV: New vkBuffer created at 0x55ab1980a798
LLVM: llvmpipe_resource_bind_backing: pipe_screen 0x55ab106cf6f0; pipe_resource 0x55ab1980bd70; llvmpipe_resource 0x55ab1980bd70; pipe_memory_allocation 0x55ab1980c000;
LVP: Binding lvp_buffer 0x55ab1980a8c0: buffer->bo: 0x55ab1980bd70; buffer->pmem: 0x55ab1980c000; memory-offset: 0;
gpgpusim: binding gpgpusim buffer 0xc1e35200 (size 3896) to vulkan buffer 0x55ab1980c000
LVP: gpgpusim buffer size 3896 allocated at 0xc1e35200
RTV: Bind buffer memory for vkBuffer 0x55ab1980a798
LVP: Finding mapped memory for mem 0x55ab1980bf80: mem->pmem 0x55ab1980c000 
LVP: Identified at 0x55ab1980c000
LVP: Command Buffer:
	VK_CMD_COPY_BUFFER2
RTV: Creating device buffer AABBs of size 11688
LVP: vkBuffer size 11688 created at 0x55ab1980a798
RTV: New vkBuffer created at 0x55ab1980a798
LLVM: llvmpipe_resource_bind_backing: pipe_screen 0x55ab106cf6f0; pipe_resource 0x55ab1980c000; llvmpipe_resource 0x55ab1980c000; pipe_memory_allocation 0x55ab19811000;
LVP: Binding lvp_buffer 0x55ab1980bf80: buffer->bo: 0x55ab1980c000; buffer->pmem: 0x55ab19811000; memory-offset: 0;
gpgpusim: binding gpgpusim buffer 0xc1e36200 (size 11688) to vulkan buffer 0x55ab19811000
LVP: gpgpusim buffer size 11688 allocated at 0xc1e36200
RTV: Bind buffer memory for vkBuffer 0x55ab1980a798
LVP: vkBuffer size 11688 created at 0x55ab19810c68
RTV: New vkBuffer created at 0x55ab19810c68
LLVM: llvmpipe_resource_bind_backing: pipe_screen 0x55ab106cf6f0; pipe_resource 0x55ab1981e6f0; llvmpipe_resource 0x55ab1981e6f0; pipe_memory_allocation 0x55ab1981f000;
LVP: Binding lvp_buffer 0x55ab19810d90: buffer->bo: 0x55ab1981e6f0; buffer->pmem: 0x55ab1981f000; memory-offset: 0;
gpgpusim: binding gpgpusim buffer 0xc1e39000 (size 11688) to vulkan buffer 0x55ab1981f000
LVP: gpgpusim buffer size 11688 allocated at 0xc1e39000
RTV: Bind buffer memory for vkBuffer 0x55ab19810c68
LVP: Finding mapped memory for mem 0x55ab1981e900: mem->pmem 0x55ab1981f000 
LVP: Identified at 0x55ab1981f000
LVP: Command Buffer:
	VK_CMD_COPY_BUFFER2
RTV: Creating device buffer Procedurals of size 7792
LVP: vkBuffer size 7792 created at 0x55ab19810c68
RTV: New vkBuffer created at 0x55ab19810c68
LLVM: llvmpipe_resource_bind_backing: pipe_screen 0x55ab106cf6f0; pipe_resource 0x55ab1981f000; llvmpipe_resource 0x55ab1981f000; pipe_memory_allocation 0x55ab1982e000;
LVP: Binding lvp_buffer 0x55ab1981e900: buffer->bo: 0x55ab1981f000; buffer->pmem: 0x55ab1982e000; memory-offset: 0;
gpgpusim: binding gpgpusim buffer 0xc1e3be00 (size 7792) to vulkan buffer 0x55ab1982e000
LVP: gpgpusim buffer size 7792 allocated at 0xc1e3be00
RTV: Bind buffer memory for vkBuffer 0x55ab19810c68
LVP: vkBuffer size 7792 created at 0x55ab1982ce18
RTV: New vkBuffer created at 0x55ab1982ce18
LLVM: llvmpipe_resource_bind_backing: pipe_screen 0x55ab106cf6f0; pipe_resource 0x55ab19833d60; llvmpipe_resource 0x55ab19833d60; pipe_memory_allocation 0x55ab19835000;
LVP: Binding lvp_buffer 0x55ab1982cf40: buffer->bo: 0x55ab19833d60; buffer->pmem: 0x55ab19835000; memory-offset: 0;
gpgpusim: binding gpgpusim buffer 0xc1e3dd00 (size 7792) to vulkan buffer 0x55ab19835000
LVP: gpgpusim buffer size 7792 allocated at 0xc1e3dd00
RTV: Bind buffer memory for vkBuffer 0x55ab1982ce18
LVP: Finding mapped memory for mem 0x55ab19833f70: mem->pmem 0x55ab19835000 
LVP: Identified at 0x55ab19835000
LVP: Command Buffer:
	VK_CMD_COPY_BUFFER2
RTV: Creating device buffer CubeAABBs of size 11688
LVP: vkBuffer size 11688 created at 0x55ab1982ce18
RTV: New vkBuffer created at 0x55ab1982ce18
LLVM: llvmpipe_resource_bind_backing: pipe_screen 0x55ab106cf6f0; pipe_resource 0x55ab19835000; llvmpipe_resource 0x55ab19835000; pipe_memory_allocation 0x55ab1983e000;
LVP: Binding lvp_buffer 0x55ab19833f70: buffer->bo: 0x55ab19835000; buffer->pmem: 0x55ab1983e000; memory-offset: 0;
gpgpusim: binding gpgpusim buffer 0xc1e3fc00 (size 11688) to vulkan buffer 0x55ab1983e000
LVP: gpgpusim buffer size 11688 allocated at 0xc1e3fc00
RTV: Bind buffer memory for vkBuffer 0x55ab1982ce18
LVP: vkBuffer size 11688 created at 0x55ab1983d868
RTV: New vkBuffer created at 0x55ab1983d868
LLVM: llvmpipe_resource_bind_backing: pipe_screen 0x55ab106cf6f0; pipe_resource 0x55ab1984a230; llvmpipe_resource 0x55ab1984a230; pipe_memory_allocation 0x55ab1984b000;
LVP: Binding lvp_buffer 0x55ab1983d990: buffer->bo: 0x55ab1984a230; buffer->pmem: 0x55ab1984b000; memory-offset: 0;
gpgpusim: binding gpgpusim buffer 0xc1e42a00 (size 11688) to vulkan buffer 0x55ab1984b000
LVP: gpgpusim buffer size 11688 allocated at 0xc1e42a00
RTV: Bind buffer memory for vkBuffer 0x55ab1983d868
LVP: Finding mapped memory for mem 0x55ab1984a440: mem->pmem 0x55ab1984b000 
LVP: Identified at 0x55ab1984b000
LVP: Command Buffer:
	VK_CMD_COPY_BUFFER2
RTV: Creating device buffer ProceduralCubes of size 7792
LVP: vkBuffer size 7792 created at 0x55ab1983d868
RTV: New vkBuffer created at 0x55ab1983d868
LLVM: llvmpipe_resource_bind_backing: pipe_screen 0x55ab106cf6f0; pipe_resource 0x55ab1984b000; llvmpipe_resource 0x55ab1984b000; pipe_memory_allocation 0x55ab19859000;
LVP: Binding lvp_buffer 0x55ab1984a440: buffer->bo: 0x55ab1984b000; buffer->pmem: 0x55ab19859000; memory-offset: 0;
gpgpusim: binding gpgpusim buffer 0xc1e45800 (size 7792) to vulkan buffer 0x55ab19859000
LVP: gpgpusim buffer size 7792 allocated at 0xc1e45800
RTV: Bind buffer memory for vkBuffer 0x55ab1983d868
LVP: vkBuffer size 7792 created at 0x55ab19858958
RTV: New vkBuffer created at 0x55ab19858958
LLVM: llvmpipe_resource_bind_backing: pipe_screen 0x55ab106cf6f0; pipe_resource 0x55ab1985f800; llvmpipe_resource 0x55ab1985f800; pipe_memory_allocation 0x55ab19860000;
LVP: Binding lvp_buffer 0x55ab19858a80: buffer->bo: 0x55ab1985f800; buffer->pmem: 0x55ab19860000; memory-offset: 0;
gpgpusim: binding gpgpusim buffer 0xc1e47700 (size 7792) to vulkan buffer 0x55ab19860000
LVP: gpgpusim buffer size 7792 allocated at 0xc1e47700
RTV: Bind buffer memory for vkBuffer 0x55ab19858958
LVP: Finding mapped memory for mem 0x55ab1985fa10: mem->pmem 0x55ab19860000 
LVP: Identified at 0x55ab19860000
LVP: Command Buffer:
	VK_CMD_COPY_BUFFER2
RTV: Creating device buffer CylinderAABBs of size 11688
LVP: vkBuffer size 11688 created at 0x55ab19858958
RTV: New vkBuffer created at 0x55ab19858958
LLVM: llvmpipe_resource_bind_backing: pipe_screen 0x55ab106cf6f0; pipe_resource 0x55ab1985f800; llvmpipe_resource 0x55ab1985f800; pipe_memory_allocation 0x55ab1986a000;
LVP: Binding lvp_buffer 0x55ab1985fa10: buffer->bo: 0x55ab1985f800; buffer->pmem: 0x55ab1986a000; memory-offset: 0;
gpgpusim: binding gpgpusim buffer 0xc1e49600 (size 11688) to vulkan buffer 0x55ab1986a000
LVP: gpgpusim buffer size 11688 allocated at 0xc1e49600
RTV: Bind buffer memory for vkBuffer 0x55ab19858958
LVP: vkBuffer size 11688 created at 0x55ab19869308
RTV: New vkBuffer created at 0x55ab19869308
LLVM: llvmpipe_resource_bind_backing: pipe_screen 0x55ab106cf6f0; pipe_resource 0x55ab198759b0; llvmpipe_resource 0x55ab198759b0; pipe_memory_allocation 0x55ab19876000;
LVP: Binding lvp_buffer 0x55ab19869430: buffer->bo: 0x55ab198759b0; buffer->pmem: 0x55ab19876000; memory-offset: 0;
gpgpusim: binding gpgpusim buffer 0xc1e4c400 (size 11688) to vulkan buffer 0x55ab19876000
LVP: gpgpusim buffer size 11688 allocated at 0xc1e4c400
RTV: Bind buffer memory for vkBuffer 0x55ab19869308
LVP: Finding mapped memory for mem 0x55ab19875bc0: mem->pmem 0x55ab19876000 
LVP: Identified at 0x55ab19876000
LVP: Command Buffer:
	VK_CMD_COPY_BUFFER2
RTV: Creating device buffer ProceduralCylinders of size 7792
LVP: vkBuffer size 7792 created at 0x55ab19869308
RTV: New vkBuffer created at 0x55ab19869308
LLVM: llvmpipe_resource_bind_backing: pipe_screen 0x55ab106cf6f0; pipe_resource 0x55ab198759b0; llvmpipe_resource 0x55ab198759b0; pipe_memory_allocation 0x55ab19885000;
LVP: Binding lvp_buffer 0x55ab19875bc0: buffer->bo: 0x55ab198759b0; buffer->pmem: 0x55ab19885000; memory-offset: 0;
gpgpusim: binding gpgpusim buffer 0xc1e4f200 (size 7792) to vulkan buffer 0x55ab19885000
LVP: gpgpusim buffer size 7792 allocated at 0xc1e4f200
RTV: Bind buffer memory for vkBuffer 0x55ab19869308
LVP: vkBuffer size 7792 created at 0x55ab19884498
RTV: New vkBuffer created at 0x55ab19884498
LLVM: llvmpipe_resource_bind_backing: pipe_screen 0x55ab106cf6f0; pipe_resource 0x55ab1988b000; llvmpipe_resource 0x55ab1988b000; pipe_memory_allocation 0x55ab1988c000;
LVP: Binding lvp_buffer 0x55ab198845c0: buffer->bo: 0x55ab1988b000; buffer->pmem: 0x55ab1988c000; memory-offset: 0;
gpgpusim: binding gpgpusim buffer 0xc1e51100 (size 7792) to vulkan buffer 0x55ab1988c000
LVP: gpgpusim buffer size 7792 allocated at 0xc1e51100
RTV: Bind buffer memory for vkBuffer 0x55ab19884498
LVP: Finding mapped memory for mem 0x55ab1988b210: mem->pmem 0x55ab1988c000 
LVP: Identified at 0x55ab1988c000
LVP: Command Buffer:
	VK_CMD_COPY_BUFFER2
LVP: vkBuffer size 4 created at 0x55ab197e4fd8
RTV: New vkBuffer created at 0x55ab197e4fd8
LLVM: llvmpipe_resource_bind_backing: pipe_screen 0x55ab106cf6f0; pipe_resource 0x55ab1988b000; llvmpipe_resource 0x55ab1988b000; pipe_memory_allocation 0x55ab1988c000;
LVP: Binding lvp_buffer 0x55ab1988b210: buffer->bo: 0x55ab1988b000; buffer->pmem: 0x55ab1988c000; memory-offset: 0;
gpgpusim: binding gpgpusim buffer 0xc1e53000 (size 4) to vulkan buffer 0x55ab1988c000
LVP: gpgpusim buffer size 4 allocated at 0xc1e53000
RTV: Bind buffer memory for vkBuffer 0x55ab197e4fd8
LVP: Finding mapped memory for mem 0x55ab198845c0: mem->pmem 0x55ab1988c000 
LVP: Identified at 0x55ab1988c000
LVP: Image created at 0x55ab1988bfe8
RTV: Creating image at 0x55ab1988c020
LLVM: llvmpipe_resource_bind_backing: pipe_screen 0x55ab106cf6f0; pipe_resource 0x55ab1988c0e0; llvmpipe_resource 0x55ab1988c0e0; pipe_memory_allocation 0x55ab1988d000;
gpgpusim: binding gpgpusim buffer 0xc1e53100 (size 256) to vulkan buffer 0x55ab1988d000
LVP: Image 0x55ab1988c020 bound to pmem 0x55ab1988d000 using pointer 0xc1e53100
LVP: Creating image_view for image 0x55ab1988c020
RTV: Creating image view at 0x55ab1988c6d0
LVP: Command Buffer:
	VK_CMD_PIPELINE_BARRIER2
LVP: Command Buffer:
	VK_CMD_COPY_BUFFER_TO_IMAGE2
LVP: Command Buffer:
	VK_CMD_PIPELINE_BARRIER2
lvp_GetAccelerationStructureBuildSizesKHR
LVP: Size of BVH structure is 0x180
RTV: Rounding size of BVH structure up to 0x200
lvp_GetAccelerationStructureBuildSizesKHR
LVP: Size of BVH structure is 0x180
RTV: Rounding size of BVH structure up to 0x200
lvp_GetAccelerationStructureBuildSizesKHR
LVP: Size of BVH structure is 0x180
RTV: Rounding size of BVH structure up to 0x200
lvp_GetAccelerationStructureBuildSizesKHR
LVP: Size of BVH structure is 0x180
RTV: Rounding size of BVH structure up to 0x200
lvp_GetAccelerationStructureBuildSizesKHR
LVP: Size of BVH structure is 0x180
RTV: Rounding size of BVH structure up to 0x200
lvp_GetAccelerationStructureBuildSizesKHR
LVP: Size of BVH structure is 0x180
RTV: Rounding size of BVH structure up to 0x200
lvp_GetAccelerationStructureBuildSizesKHR
LVP: Size of BVH structure is 0x180
RTV: Rounding size of BVH structure up to 0x200
lvp_GetAccelerationStructureBuildSizesKHR
LVP: Size of BVH structure is 0x180
RTV: Rounding size of BVH structure up to 0x200
lvp_GetAccelerationStructureBuildSizesKHR
LVP: Size of BVH structure is 0x180
RTV: Rounding size of BVH structure up to 0x200
lvp_GetAccelerationStructureBuildSizesKHR
LVP: Size of BVH structure is 0x180
RTV: Rounding size of BVH structure up to 0x200
lvp_GetAccelerationStructureBuildSizesKHR
LVP: Size of BVH structure is 0x180
RTV: Rounding size of BVH structure up to 0x200
lvp_GetAccelerationStructureBuildSizesKHR
LVP: Size of BVH structure is 0x180
RTV: Rounding size of BVH structure up to 0x200
lvp_GetAccelerationStructureBuildSizesKHR
LVP: Size of BVH structure is 0x180
RTV: Rounding size of BVH structure up to 0x200
lvp_GetAccelerationStructureBuildSizesKHR
LVP: Size of BVH structure is 0x180
RTV: Rounding size of BVH structure up to 0x200
lvp_GetAccelerationStructureBuildSizesKHR
LVP: Size of BVH structure is 0x180
RTV: Rounding size of BVH structure up to 0x200
lvp_GetAccelerationStructureBuildSizesKHR
LVP: Size of BVH structure is 0x180
RTV: Rounding size of BVH structure up to 0x200
lvp_GetAccelerationStructureBuildSizesKHR
LVP: Size of BVH structure is 0x180
RTV: Rounding size of BVH structure up to 0x200
lvp_GetAccelerationStructureBuildSizesKHR
LVP: Size of BVH structure is 0x180
RTV: Rounding size of BVH structure up to 0x200
lvp_GetAccelerationStructureBuildSizesKHR
LVP: Size of BVH structure is 0x180
RTV: Rounding size of BVH structure up to 0x200
lvp_GetAccelerationStructureBuildSizesKHR
LVP: Size of BVH structure is 0x180
RTV: Rounding size of BVH structure up to 0x200
lvp_GetAccelerationStructureBuildSizesKHR
LVP: Size of BVH structure is 0x180
RTV: Rounding size of BVH structure up to 0x200
lvp_GetAccelerationStructureBuildSizesKHR
LVP: Size of BVH structure is 0x180
RTV: Rounding size of BVH structure up to 0x200
lvp_GetAccelerationStructureBuildSizesKHR
LVP: Size of BVH structure is 0x180
RTV: Rounding size of BVH structure up to 0x200
lvp_GetAccelerationStructureBuildSizesKHR
LVP: Size of BVH structure is 0x180
RTV: Rounding size of BVH structure up to 0x200
lvp_GetAccelerationStructureBuildSizesKHR
LVP: Size of BVH structure is 0x180
RTV: Rounding size of BVH structure up to 0x200
lvp_GetAccelerationStructureBuildSizesKHR
LVP: Size of BVH structure is 0x180
RTV: Rounding size of BVH structure up to 0x200
lvp_GetAccelerationStructureBuildSizesKHR
LVP: Size of BVH structure is 0x180
RTV: Rounding size of BVH structure up to 0x200
lvp_GetAccelerationStructureBuildSizesKHR
LVP: Size of BVH structure is 0x180
RTV: Rounding size of BVH structure up to 0x200
lvp_GetAccelerationStructureBuildSizesKHR
LVP: Size of BVH structure is 0x180
RTV: Rounding size of BVH structure up to 0x200
lvp_GetAccelerationStructureBuildSizesKHR
LVP: Size of BVH structure is 0x180
RTV: Rounding size of BVH structure up to 0x200
lvp_GetAccelerationStructureBuildSizesKHR
LVP: Size of BVH structure is 0x180
RTV: Rounding size of BVH structure up to 0x200
lvp_GetAccelerationStructureBuildSizesKHR
LVP: Size of BVH structure is 0x180
RTV: Rounding size of BVH structure up to 0x200
lvp_GetAccelerationStructureBuildSizesKHR
LVP: Size of BVH structure is 0x180
RTV: Rounding size of BVH structure up to 0x200
lvp_GetAccelerationStructureBuildSizesKHR
LVP: Size of BVH structure is 0x180
RTV: Rounding size of BVH structure up to 0x200
lvp_GetAccelerationStructureBuildSizesKHR
LVP: Size of BVH structure is 0x180
RTV: Rounding size of BVH structure up to 0x200
lvp_GetAccelerationStructureBuildSizesKHR
LVP: Size of BVH structure is 0x180
RTV: Rounding size of BVH structure up to 0x200
lvp_GetAccelerationStructureBuildSizesKHR
LVP: Size of BVH structure is 0x180
RTV: Rounding size of BVH structure up to 0x200
lvp_GetAccelerationStructureBuildSizesKHR
LVP: Size of BVH structure is 0x180
RTV: Rounding size of BVH structure up to 0x200
lvp_GetAccelerationStructureBuildSizesKHR
LVP: Size of BVH structure is 0x180
RTV: Rounding size of BVH structure up to 0x200
lvp_GetAccelerationStructureBuildSizesKHR
LVP: Size of BVH structure is 0x180
RTV: Rounding size of BVH structure up to 0x200
lvp_GetAccelerationStructureBuildSizesKHR
LVP: Size of BVH structure is 0x180
RTV: Rounding size of BVH structure up to 0x200
lvp_GetAccelerationStructureBuildSizesKHR
LVP: Size of BVH structure is 0x180
RTV: Rounding size of BVH structure up to 0x200
lvp_GetAccelerationStructureBuildSizesKHR
LVP: Size of BVH structure is 0x180
RTV: Rounding size of BVH structure up to 0x200
lvp_GetAccelerationStructureBuildSizesKHR
LVP: Size of BVH structure is 0x180
RTV: Rounding size of BVH structure up to 0x200
lvp_GetAccelerationStructureBuildSizesKHR
LVP: Size of BVH structure is 0x180
RTV: Rounding size of BVH structure up to 0x200
lvp_GetAccelerationStructureBuildSizesKHR
LVP: Size of BVH structure is 0x180
RTV: Rounding size of BVH structure up to 0x200
lvp_GetAccelerationStructureBuildSizesKHR
LVP: Size of BVH structure is 0x180
RTV: Rounding size of BVH structure up to 0x200
lvp_GetAccelerationStructureBuildSizesKHR
LVP: Size of BVH structure is 0x180
RTV: Rounding size of BVH structure up to 0x200
lvp_GetAccelerationStructureBuildSizesKHR
LVP: Size of BVH structure is 0x180
RTV: Rounding size of BVH structure up to 0x200
lvp_GetAccelerationStructureBuildSizesKHR
LVP: Size of BVH structure is 0x180
RTV: Rounding size of BVH structure up to 0x200
lvp_GetAccelerationStructureBuildSizesKHR
LVP: Size of BVH structure is 0x180
RTV: Rounding size of BVH structure up to 0x200
lvp_GetAccelerationStructureBuildSizesKHR
LVP: Size of BVH structure is 0x180
RTV: Rounding size of BVH structure up to 0x200
lvp_GetAccelerationStructureBuildSizesKHR
LVP: Size of BVH structure is 0x180
RTV: Rounding size of BVH structure up to 0x200
lvp_GetAccelerationStructureBuildSizesKHR
LVP: Size of BVH structure is 0x180
RTV: Rounding size of BVH structure up to 0x200
lvp_GetAccelerationStructureBuildSizesKHR
LVP: Size of BVH structure is 0x180
RTV: Rounding size of BVH structure up to 0x200
lvp_GetAccelerationStructureBuildSizesKHR
LVP: Size of BVH structure is 0x180
RTV: Rounding size of BVH structure up to 0x200
lvp_GetAccelerationStructureBuildSizesKHR
LVP: Size of BVH structure is 0x180
RTV: Rounding size of BVH structure up to 0x200
lvp_GetAccelerationStructureBuildSizesKHR
LVP: Size of BVH structure is 0x180
RTV: Rounding size of BVH structure up to 0x200
lvp_GetAccelerationStructureBuildSizesKHR
LVP: Size of BVH structure is 0x180
RTV: Rounding size of BVH structure up to 0x200
lvp_GetAccelerationStructureBuildSizesKHR
LVP: Size of BVH structure is 0x180
RTV: Rounding size of BVH structure up to 0x200
lvp_GetAccelerationStructureBuildSizesKHR
LVP: Size of BVH structure is 0x180
RTV: Rounding size of BVH structure up to 0x200
lvp_GetAccelerationStructureBuildSizesKHR
LVP: Size of BVH structure is 0x180
RTV: Rounding size of BVH structure up to 0x200
lvp_GetAccelerationStructureBuildSizesKHR
LVP: Size of BVH structure is 0x180
RTV: Rounding size of BVH structure up to 0x200
lvp_GetAccelerationStructureBuildSizesKHR
LVP: Size of BVH structure is 0x180
RTV: Rounding size of BVH structure up to 0x200
lvp_GetAccelerationStructureBuildSizesKHR
LVP: Size of BVH structure is 0x180
RTV: Rounding size of BVH structure up to 0x200
lvp_GetAccelerationStructureBuildSizesKHR
LVP: Size of BVH structure is 0x180
RTV: Rounding size of BVH structure up to 0x200
lvp_GetAccelerationStructureBuildSizesKHR
LVP: Size of BVH structure is 0x180
RTV: Rounding size of BVH structure up to 0x200
lvp_GetAccelerationStructureBuildSizesKHR
LVP: Size of BVH structure is 0x180
RTV: Rounding size of BVH structure up to 0x200
lvp_GetAccelerationStructureBuildSizesKHR
LVP: Size of BVH structure is 0x180
RTV: Rounding size of BVH structure up to 0x200
lvp_GetAccelerationStructureBuildSizesKHR
LVP: Size of BVH structure is 0x180
RTV: Rounding size of BVH structure up to 0x200
lvp_GetAccelerationStructureBuildSizesKHR
LVP: Size of BVH structure is 0x180
RTV: Rounding size of BVH structure up to 0x200
lvp_GetAccelerationStructureBuildSizesKHR
LVP: Size of BVH structure is 0x180
RTV: Rounding size of BVH structure up to 0x200
lvp_GetAccelerationStructureBuildSizesKHR
LVP: Size of BVH structure is 0x180
RTV: Rounding size of BVH structure up to 0x200
lvp_GetAccelerationStructureBuildSizesKHR
LVP: Size of BVH structure is 0x180
RTV: Rounding size of BVH structure up to 0x200
lvp_GetAccelerationStructureBuildSizesKHR
LVP: Size of BVH structure is 0x180
RTV: Rounding size of BVH structure up to 0x200
lvp_GetAccelerationStructureBuildSizesKHR
LVP: Size of BVH structure is 0x180
RTV: Rounding size of BVH structure up to 0x200
lvp_GetAccelerationStructureBuildSizesKHR
LVP: Size of BVH structure is 0x180
RTV: Rounding size of BVH structure up to 0x200
lvp_GetAccelerationStructureBuildSizesKHR
LVP: Size of BVH structure is 0x180
RTV: Rounding size of BVH structure up to 0x200
lvp_GetAccelerationStructureBuildSizesKHR
LVP: Size of BVH structure is 0x180
RTV: Rounding size of BVH structure up to 0x200
lvp_GetAccelerationStructureBuildSizesKHR
LVP: Size of BVH structure is 0x180
RTV: Rounding size of BVH structure up to 0x200
lvp_GetAccelerationStructureBuildSizesKHR
LVP: Size of BVH structure is 0x180
RTV: Rounding size of BVH structure up to 0x200
lvp_GetAccelerationStructureBuildSizesKHR
LVP: Size of BVH structure is 0x180
RTV: Rounding size of BVH structure up to 0x200
lvp_GetAccelerationStructureBuildSizesKHR
LVP: Size of BVH structure is 0x180
RTV: Rounding size of BVH structure up to 0x200
lvp_GetAccelerationStructureBuildSizesKHR
LVP: Size of BVH structure is 0x180
RTV: Rounding size of BVH structure up to 0x200
lvp_GetAccelerationStructureBuildSizesKHR
LVP: Size of BVH structure is 0x180
RTV: Rounding size of BVH structure up to 0x200
lvp_GetAccelerationStructureBuildSizesKHR
LVP: Size of BVH structure is 0x180
RTV: Rounding size of BVH structure up to 0x200
lvp_GetAccelerationStructureBuildSizesKHR
LVP: Size of BVH structure is 0x180
RTV: Rounding size of BVH structure up to 0x200
lvp_GetAccelerationStructureBuildSizesKHR
LVP: Size of BVH structure is 0x180
RTV: Rounding size of BVH structure up to 0x200
lvp_GetAccelerationStructureBuildSizesKHR
LVP: Size of BVH structure is 0x180
RTV: Rounding size of BVH structure up to 0x200
lvp_GetAccelerationStructureBuildSizesKHR
LVP: Size of BVH structure is 0x180
RTV: Rounding size of BVH structure up to 0x200
lvp_GetAccelerationStructureBuildSizesKHR
LVP: Size of BVH structure is 0x180
RTV: Rounding size of BVH structure up to 0x200
lvp_GetAccelerationStructureBuildSizesKHR
LVP: Size of BVH structure is 0x180
RTV: Rounding size of BVH structure up to 0x200
lvp_GetAccelerationStructureBuildSizesKHR
LVP: Size of BVH structure is 0x180
RTV: Rounding size of BVH structure up to 0x200
lvp_GetAccelerationStructureBuildSizesKHR
LVP: Size of BVH structure is 0x180
RTV: Rounding size of BVH structure up to 0x200
lvp_GetAccelerationStructureBuildSizesKHR
LVP: Size of BVH structure is 0x180
RTV: Rounding size of BVH structure up to 0x200
lvp_GetAccelerationStructureBuildSizesKHR
LVP: Size of BVH structure is 0x180
RTV: Rounding size of BVH structure up to 0x200
lvp_GetAccelerationStructureBuildSizesKHR
LVP: Size of BVH structure is 0x180
RTV: Rounding size of BVH structure up to 0x200
lvp_GetAccelerationStructureBuildSizesKHR
LVP: Size of BVH structure is 0x180
RTV: Rounding size of BVH structure up to 0x200
lvp_GetAccelerationStructureBuildSizesKHR
LVP: Size of BVH structure is 0x180
RTV: Rounding size of BVH structure up to 0x200
lvp_GetAccelerationStructureBuildSizesKHR
LVP: Size of BVH structure is 0x180
RTV: Rounding size of BVH structure up to 0x200
lvp_GetAccelerationStructureBuildSizesKHR
LVP: Size of BVH structure is 0x180
RTV: Rounding size of BVH structure up to 0x200
lvp_GetAccelerationStructureBuildSizesKHR
LVP: Size of BVH structure is 0x180
RTV: Rounding size of BVH structure up to 0x200
lvp_GetAccelerationStructureBuildSizesKHR
LVP: Size of BVH structure is 0x180
RTV: Rounding size of BVH structure up to 0x200
lvp_GetAccelerationStructureBuildSizesKHR
LVP: Size of BVH structure is 0x180
RTV: Rounding size of BVH structure up to 0x200
lvp_GetAccelerationStructureBuildSizesKHR
LVP: Size of BVH structure is 0x180
RTV: Rounding size of BVH structure up to 0x200
lvp_GetAccelerationStructureBuildSizesKHR
LVP: Size of BVH structure is 0x180
RTV: Rounding size of BVH structure up to 0x200
lvp_GetAccelerationStructureBuildSizesKHR
LVP: Size of BVH structure is 0x180
RTV: Rounding size of BVH structure up to 0x200
lvp_GetAccelerationStructureBuildSizesKHR
LVP: Size of BVH structure is 0x180
RTV: Rounding size of BVH structure up to 0x200
lvp_GetAccelerationStructureBuildSizesKHR
LVP: Size of BVH structure is 0x180
RTV: Rounding size of BVH structure up to 0x200
lvp_GetAccelerationStructureBuildSizesKHR
LVP: Size of BVH structure is 0x180
RTV: Rounding size of BVH structure up to 0x200
lvp_GetAccelerationStructureBuildSizesKHR
LVP: Size of BVH structure is 0x180
RTV: Rounding size of BVH structure up to 0x200
lvp_GetAccelerationStructureBuildSizesKHR
LVP: Size of BVH structure is 0x180
RTV: Rounding size of BVH structure up to 0x200
lvp_GetAccelerationStructureBuildSizesKHR
LVP: Size of BVH structure is 0x180
RTV: Rounding size of BVH structure up to 0x200
lvp_GetAccelerationStructureBuildSizesKHR
LVP: Size of BVH structure is 0x180
RTV: Rounding size of BVH structure up to 0x200
lvp_GetAccelerationStructureBuildSizesKHR
LVP: Size of BVH structure is 0x180
RTV: Rounding size of BVH structure up to 0x200
lvp_GetAccelerationStructureBuildSizesKHR
LVP: Size of BVH structure is 0x180
RTV: Rounding size of BVH structure up to 0x200
lvp_GetAccelerationStructureBuildSizesKHR
LVP: Size of BVH structure is 0x180
RTV: Rounding size of BVH structure up to 0x200
lvp_GetAccelerationStructureBuildSizesKHR
LVP: Size of BVH structure is 0x180
RTV: Rounding size of BVH structure up to 0x200
lvp_GetAccelerationStructureBuildSizesKHR
LVP: Size of BVH structure is 0x180
RTV: Rounding size of BVH structure up to 0x200
lvp_GetAccelerationStructureBuildSizesKHR
LVP: Size of BVH structure is 0x180
RTV: Rounding size of BVH structure up to 0x200
lvp_GetAccelerationStructureBuildSizesKHR
LVP: Size of BVH structure is 0x180
RTV: Rounding size of BVH structure up to 0x200
lvp_GetAccelerationStructureBuildSizesKHR
LVP: Size of BVH structure is 0x180
RTV: Rounding size of BVH structure up to 0x200
lvp_GetAccelerationStructureBuildSizesKHR
LVP: Size of BVH structure is 0x180
RTV: Rounding size of BVH structure up to 0x200
lvp_GetAccelerationStructureBuildSizesKHR
LVP: Size of BVH structure is 0x180
RTV: Rounding size of BVH structure up to 0x200
lvp_GetAccelerationStructureBuildSizesKHR
LVP: Size of BVH structure is 0x180
RTV: Rounding size of BVH structure up to 0x200
lvp_GetAccelerationStructureBuildSizesKHR
LVP: Size of BVH structure is 0x180
RTV: Rounding size of BVH structure up to 0x200
lvp_GetAccelerationStructureBuildSizesKHR
LVP: Size of BVH structure is 0x180
RTV: Rounding size of BVH structure up to 0x200
lvp_GetAccelerationStructureBuildSizesKHR
LVP: Size of BVH structure is 0x180
RTV: Rounding size of BVH structure up to 0x200
lvp_GetAccelerationStructureBuildSizesKHR
LVP: Size of BVH structure is 0x180
RTV: Rounding size of BVH structure up to 0x200
lvp_GetAccelerationStructureBuildSizesKHR
LVP: Size of BVH structure is 0x180
RTV: Rounding size of BVH structure up to 0x200
lvp_GetAccelerationStructureBuildSizesKHR
LVP: Size of BVH structure is 0x180
RTV: Rounding size of BVH structure up to 0x200
lvp_GetAccelerationStructureBuildSizesKHR
LVP: Size of BVH structure is 0x180
RTV: Rounding size of BVH structure up to 0x200
lvp_GetAccelerationStructureBuildSizesKHR
LVP: Size of BVH structure is 0x180
RTV: Rounding size of BVH structure up to 0x200
lvp_GetAccelerationStructureBuildSizesKHR
LVP: Size of BVH structure is 0x180
RTV: Rounding size of BVH structure up to 0x200
lvp_GetAccelerationStructureBuildSizesKHR
LVP: Size of BVH structure is 0x180
RTV: Rounding size of BVH structure up to 0x200
lvp_GetAccelerationStructureBuildSizesKHR
LVP: Size of BVH structure is 0x180
RTV: Rounding size of BVH structure up to 0x200
lvp_GetAccelerationStructureBuildSizesKHR
LVP: Size of BVH structure is 0x180
RTV: Rounding size of BVH structure up to 0x200
lvp_GetAccelerationStructureBuildSizesKHR
LVP: Size of BVH structure is 0x180
RTV: Rounding size of BVH structure up to 0x200
lvp_GetAccelerationStructureBuildSizesKHR
LVP: Size of BVH structure is 0x180
RTV: Rounding size of BVH structure up to 0x200
lvp_GetAccelerationStructureBuildSizesKHR
LVP: Size of BVH structure is 0x180
RTV: Rounding size of BVH structure up to 0x200
lvp_GetAccelerationStructureBuildSizesKHR
LVP: Size of BVH structure is 0x180
RTV: Rounding size of BVH structure up to 0x200
lvp_GetAccelerationStructureBuildSizesKHR
LVP: Size of BVH structure is 0x180
RTV: Rounding size of BVH structure up to 0x200
lvp_GetAccelerationStructureBuildSizesKHR
LVP: Size of BVH structure is 0x180
RTV: Rounding size of BVH structure up to 0x200
lvp_GetAccelerationStructureBuildSizesKHR
LVP: Size of BVH structure is 0x180
RTV: Rounding size of BVH structure up to 0x200
lvp_GetAccelerationStructureBuildSizesKHR
LVP: Size of BVH structure is 0x180
RTV: Rounding size of BVH structure up to 0x200
lvp_GetAccelerationStructureBuildSizesKHR
LVP: Size of BVH structure is 0x180
RTV: Rounding size of BVH structure up to 0x200
lvp_GetAccelerationStructureBuildSizesKHR
LVP: Size of BVH structure is 0x180
RTV: Rounding size of BVH structure up to 0x200
lvp_GetAccelerationStructureBuildSizesKHR
LVP: Size of BVH structure is 0x180
RTV: Rounding size of BVH structure up to 0x200
lvp_GetAccelerationStructureBuildSizesKHR
LVP: Size of BVH structure is 0x180
RTV: Rounding size of BVH structure up to 0x200
lvp_GetAccelerationStructureBuildSizesKHR
LVP: Size of BVH structure is 0x180
RTV: Rounding size of BVH structure up to 0x200
lvp_GetAccelerationStructureBuildSizesKHR
LVP: Size of BVH structure is 0x180
RTV: Rounding size of BVH structure up to 0x200
lvp_GetAccelerationStructureBuildSizesKHR
LVP: Size of BVH structure is 0x180
RTV: Rounding size of BVH structure up to 0x200
lvp_GetAccelerationStructureBuildSizesKHR
LVP: Size of BVH structure is 0x180
RTV: Rounding size of BVH structure up to 0x200
lvp_GetAccelerationStructureBuildSizesKHR
LVP: Size of BVH structure is 0x180
RTV: Rounding size of BVH structure up to 0x200
lvp_GetAccelerationStructureBuildSizesKHR
LVP: Size of BVH structure is 0x180
RTV: Rounding size of BVH structure up to 0x200
lvp_GetAccelerationStructureBuildSizesKHR
LVP: Size of BVH structure is 0x180
RTV: Rounding size of BVH structure up to 0x200
lvp_GetAccelerationStructureBuildSizesKHR
LVP: Size of BVH structure is 0x180
RTV: Rounding size of BVH structure up to 0x200
lvp_GetAccelerationStructureBuildSizesKHR
LVP: Size of BVH structure is 0x180
RTV: Rounding size of BVH structure up to 0x200
lvp_GetAccelerationStructureBuildSizesKHR
LVP: Size of BVH structure is 0x180
RTV: Rounding size of BVH structure up to 0x200
lvp_GetAccelerationStructureBuildSizesKHR
LVP: Size of BVH structure is 0x180
RTV: Rounding size of BVH structure up to 0x200
lvp_GetAccelerationStructureBuildSizesKHR
LVP: Size of BVH structure is 0x180
RTV: Rounding size of BVH structure up to 0x200
lvp_GetAccelerationStructureBuildSizesKHR
LVP: Size of BVH structure is 0x180
RTV: Rounding size of BVH structure up to 0x200
lvp_GetAccelerationStructureBuildSizesKHR
LVP: Size of BVH structure is 0x180
RTV: Rounding size of BVH structure up to 0x200
lvp_GetAccelerationStructureBuildSizesKHR
LVP: Size of BVH structure is 0x180
RTV: Rounding size of BVH structure up to 0x200
lvp_GetAccelerationStructureBuildSizesKHR
LVP: Size of BVH structure is 0x180
RTV: Rounding size of BVH structure up to 0x200
lvp_GetAccelerationStructureBuildSizesKHR
LVP: Size of BVH structure is 0x180
RTV: Rounding size of BVH structure up to 0x200
lvp_GetAccelerationStructureBuildSizesKHR
LVP: Size of BVH structure is 0x180
RTV: Rounding size of BVH structure up to 0x200
lvp_GetAccelerationStructureBuildSizesKHR
LVP: Size of BVH structure is 0x180
RTV: Rounding size of BVH structure up to 0x200
lvp_GetAccelerationStructureBuildSizesKHR
LVP: Size of BVH structure is 0x180
RTV: Rounding size of BVH structure up to 0x200
lvp_GetAccelerationStructureBuildSizesKHR
LVP: Size of BVH structure is 0x180
RTV: Rounding size of BVH structure up to 0x200
lvp_GetAccelerationStructureBuildSizesKHR
LVP: Size of BVH structure is 0x180
RTV: Rounding size of BVH structure up to 0x200
lvp_GetAccelerationStructureBuildSizesKHR
LVP: Size of BVH structure is 0x180
RTV: Rounding size of BVH structure up to 0x200
lvp_GetAccelerationStructureBuildSizesKHR
LVP: Size of BVH structure is 0x180
RTV: Rounding size of BVH structure up to 0x200
lvp_GetAccelerationStructureBuildSizesKHR
LVP: Size of BVH structure is 0x180
RTV: Rounding size of BVH structure up to 0x200
lvp_GetAccelerationStructureBuildSizesKHR
LVP: Size of BVH structure is 0x180
RTV: Rounding size of BVH structure up to 0x200
lvp_GetAccelerationStructureBuildSizesKHR
LVP: Size of BVH structure is 0x180
RTV: Rounding size of BVH structure up to 0x200
lvp_GetAccelerationStructureBuildSizesKHR
LVP: Size of BVH structure is 0x180
RTV: Rounding size of BVH structure up to 0x200
lvp_GetAccelerationStructureBuildSizesKHR
LVP: Size of BVH structure is 0x180
RTV: Rounding size of BVH structure up to 0x200
lvp_GetAccelerationStructureBuildSizesKHR
LVP: Size of BVH structure is 0x180
RTV: Rounding size of BVH structure up to 0x200
lvp_GetAccelerationStructureBuildSizesKHR
LVP: Size of BVH structure is 0x180
RTV: Rounding size of BVH structure up to 0x200
lvp_GetAccelerationStructureBuildSizesKHR
LVP: Size of BVH structure is 0x180
RTV: Rounding size of BVH structure up to 0x200
lvp_GetAccelerationStructureBuildSizesKHR
LVP: Size of BVH structure is 0x180
RTV: Rounding size of BVH structure up to 0x200
lvp_GetAccelerationStructureBuildSizesKHR
LVP: Size of BVH structure is 0x180
RTV: Rounding size of BVH structure up to 0x200
lvp_GetAccelerationStructureBuildSizesKHR
LVP: Size of BVH structure is 0x180
RTV: Rounding size of BVH structure up to 0x200
lvp_GetAccelerationStructureBuildSizesKHR
LVP: Size of BVH structure is 0x180
RTV: Rounding size of BVH structure up to 0x200
lvp_GetAccelerationStructureBuildSizesKHR
LVP: Size of BVH structure is 0x180
RTV: Rounding size of BVH structure up to 0x200
lvp_GetAccelerationStructureBuildSizesKHR
LVP: Size of BVH structure is 0x180
RTV: Rounding size of BVH structure up to 0x200
lvp_GetAccelerationStructureBuildSizesKHR
LVP: Size of BVH structure is 0x180
RTV: Rounding size of BVH structure up to 0x200
lvp_GetAccelerationStructureBuildSizesKHR
LVP: Size of BVH structure is 0x180
RTV: Rounding size of BVH structure up to 0x200
lvp_GetAccelerationStructureBuildSizesKHR
LVP: Size of BVH structure is 0x180
RTV: Rounding size of BVH structure up to 0x200
lvp_GetAccelerationStructureBuildSizesKHR
LVP: Size of BVH structure is 0x180
RTV: Rounding size of BVH structure up to 0x200
lvp_GetAccelerationStructureBuildSizesKHR
LVP: Size of BVH structure is 0x180
RTV: Rounding size of BVH structure up to 0x200
lvp_GetAccelerationStructureBuildSizesKHR
LVP: Size of BVH structure is 0x180
RTV: Rounding size of BVH structure up to 0x200
lvp_GetAccelerationStructureBuildSizesKHR
LVP: Size of BVH structure is 0x180
RTV: Rounding size of BVH structure up to 0x200
lvp_GetAccelerationStructureBuildSizesKHR
LVP: Size of BVH structure is 0x180
RTV: Rounding size of BVH structure up to 0x200
lvp_GetAccelerationStructureBuildSizesKHR
LVP: Size of BVH structure is 0x180
RTV: Rounding size of BVH structure up to 0x200
lvp_GetAccelerationStructureBuildSizesKHR
LVP: Size of BVH structure is 0x180
RTV: Rounding size of BVH structure up to 0x200
lvp_GetAccelerationStructureBuildSizesKHR
LVP: Size of BVH structure is 0x180
RTV: Rounding size of BVH structure up to 0x200
lvp_GetAccelerationStructureBuildSizesKHR
LVP: Size of BVH structure is 0x180
RTV: Rounding size of BVH structure up to 0x200
lvp_GetAccelerationStructureBuildSizesKHR
LVP: Size of BVH structure is 0x180
RTV: Rounding size of BVH structure up to 0x200
lvp_GetAccelerationStructureBuildSizesKHR
LVP: Size of BVH structure is 0x180
RTV: Rounding size of BVH structure up to 0x200
lvp_GetAccelerationStructureBuildSizesKHR
LVP: Size of BVH structure is 0x180
RTV: Rounding size of BVH structure up to 0x200
lvp_GetAccelerationStructureBuildSizesKHR
LVP: Size of BVH structure is 0x180
RTV: Rounding size of BVH structure up to 0x200
lvp_GetAccelerationStructureBuildSizesKHR
LVP: Size of BVH structure is 0x180
RTV: Rounding size of BVH structure up to 0x200
lvp_GetAccelerationStructureBuildSizesKHR
LVP: Size of BVH structure is 0x180
RTV: Rounding size of BVH structure up to 0x200
lvp_GetAccelerationStructureBuildSizesKHR
LVP: Size of BVH structure is 0x180
RTV: Rounding size of BVH structure up to 0x200
lvp_GetAccelerationStructureBuildSizesKHR
LVP: Size of BVH structure is 0x180
RTV: Rounding size of BVH structure up to 0x200
lvp_GetAccelerationStructureBuildSizesKHR
LVP: Size of BVH structure is 0x180
RTV: Rounding size of BVH structure up to 0x200
lvp_GetAccelerationStructureBuildSizesKHR
LVP: Size of BVH structure is 0x180
RTV: Rounding size of BVH structure up to 0x200
lvp_GetAccelerationStructureBuildSizesKHR
LVP: Size of BVH structure is 0x180
RTV: Rounding size of BVH structure up to 0x200
lvp_GetAccelerationStructureBuildSizesKHR
LVP: Size of BVH structure is 0x180
RTV: Rounding size of BVH structure up to 0x200
lvp_GetAccelerationStructureBuildSizesKHR
LVP: Size of BVH structure is 0x180
RTV: Rounding size of BVH structure up to 0x200
lvp_GetAccelerationStructureBuildSizesKHR
LVP: Size of BVH structure is 0x180
RTV: Rounding size of BVH structure up to 0x200
lvp_GetAccelerationStructureBuildSizesKHR
LVP: Size of BVH structure is 0x180
RTV: Rounding size of BVH structure up to 0x200
lvp_GetAccelerationStructureBuildSizesKHR
LVP: Size of BVH structure is 0x180
RTV: Rounding size of BVH structure up to 0x200
lvp_GetAccelerationStructureBuildSizesKHR
LVP: Size of BVH structure is 0x180
RTV: Rounding size of BVH structure up to 0x200
lvp_GetAccelerationStructureBuildSizesKHR
LVP: Size of BVH structure is 0x180
RTV: Rounding size of BVH structure up to 0x200
lvp_GetAccelerationStructureBuildSizesKHR
LVP: Size of BVH structure is 0x180
RTV: Rounding size of BVH structure up to 0x200
lvp_GetAccelerationStructureBuildSizesKHR
LVP: Size of BVH structure is 0x180
RTV: Rounding size of BVH structure up to 0x200
lvp_GetAccelerationStructureBuildSizesKHR
LVP: Size of BVH structure is 0x180
RTV: Rounding size of BVH structure up to 0x200
lvp_GetAccelerationStructureBuildSizesKHR
LVP: Size of BVH structure is 0x180
RTV: Rounding size of BVH structure up to 0x200
lvp_GetAccelerationStructureBuildSizesKHR
LVP: Size of BVH structure is 0x180
RTV: Rounding size of BVH structure up to 0x200
lvp_GetAccelerationStructureBuildSizesKHR
LVP: Size of BVH structure is 0x180
RTV: Rounding size of BVH structure up to 0x200
lvp_GetAccelerationStructureBuildSizesKHR
LVP: Size of BVH structure is 0x180
RTV: Rounding size of BVH structure up to 0x200
lvp_GetAccelerationStructureBuildSizesKHR
LVP: Size of BVH structure is 0x180
RTV: Rounding size of BVH structure up to 0x200
lvp_GetAccelerationStructureBuildSizesKHR
LVP: Size of BVH structure is 0x180
RTV: Rounding size of BVH structure up to 0x200
lvp_GetAccelerationStructureBuildSizesKHR
LVP: Size of BVH structure is 0x180
RTV: Rounding size of BVH structure up to 0x200
lvp_GetAccelerationStructureBuildSizesKHR
LVP: Size of BVH structure is 0x180
RTV: Rounding size of BVH structure up to 0x200
lvp_GetAccelerationStructureBuildSizesKHR
LVP: Size of BVH structure is 0x180
RTV: Rounding size of BVH structure up to 0x200
lvp_GetAccelerationStructureBuildSizesKHR
LVP: Size of BVH structure is 0x180
RTV: Rounding size of BVH structure up to 0x200
lvp_GetAccelerationStructureBuildSizesKHR
LVP: Size of BVH structure is 0x180
RTV: Rounding size of BVH structure up to 0x200
lvp_GetAccelerationStructureBuildSizesKHR
LVP: Size of BVH structure is 0x180
RTV: Rounding size of BVH structure up to 0x200
lvp_GetAccelerationStructureBuildSizesKHR
LVP: Size of BVH structure is 0x180
RTV: Rounding size of BVH structure up to 0x200
lvp_GetAccelerationStructureBuildSizesKHR
LVP: Size of BVH structure is 0x180
RTV: Rounding size of BVH structure up to 0x200
lvp_GetAccelerationStructureBuildSizesKHR
LVP: Size of BVH structure is 0x180
RTV: Rounding size of BVH structure up to 0x200
lvp_GetAccelerationStructureBuildSizesKHR
LVP: Size of BVH structure is 0x180
RTV: Rounding size of BVH structure up to 0x200
lvp_GetAccelerationStructureBuildSizesKHR
LVP: Size of BVH structure is 0x180
RTV: Rounding size of BVH structure up to 0x200
lvp_GetAccelerationStructureBuildSizesKHR
LVP: Size of BVH structure is 0x180
RTV: Rounding size of BVH structure up to 0x200
lvp_GetAccelerationStructureBuildSizesKHR
LVP: Size of BVH structure is 0x180
RTV: Rounding size of BVH structure up to 0x200
lvp_GetAccelerationStructureBuildSizesKHR
LVP: Size of BVH structure is 0x180
RTV: Rounding size of BVH structure up to 0x200
lvp_GetAccelerationStructureBuildSizesKHR
LVP: Size of BVH structure is 0x180
RTV: Rounding size of BVH structure up to 0x200
lvp_GetAccelerationStructureBuildSizesKHR
LVP: Size of BVH structure is 0x180
RTV: Rounding size of BVH structure up to 0x200
lvp_GetAccelerationStructureBuildSizesKHR
LVP: Size of BVH structure is 0x180
RTV: Rounding size of BVH structure up to 0x200
lvp_GetAccelerationStructureBuildSizesKHR
LVP: Size of BVH structure is 0x180
RTV: Rounding size of BVH structure up to 0x200
lvp_GetAccelerationStructureBuildSizesKHR
LVP: Size of BVH structure is 0x180
RTV: Rounding size of BVH structure up to 0x200
lvp_GetAccelerationStructureBuildSizesKHR
LVP: Size of BVH structure is 0x180
RTV: Rounding size of BVH structure up to 0x200
lvp_GetAccelerationStructureBuildSizesKHR
LVP: Size of BVH structure is 0x180
RTV: Rounding size of BVH structure up to 0x200
lvp_GetAccelerationStructureBuildSizesKHR
LVP: Size of BVH structure is 0x180
RTV: Rounding size of BVH structure up to 0x200
lvp_GetAccelerationStructureBuildSizesKHR
LVP: Size of BVH structure is 0x180
RTV: Rounding size of BVH structure up to 0x200
lvp_GetAccelerationStructureBuildSizesKHR
LVP: Size of BVH structure is 0x180
RTV: Rounding size of BVH structure up to 0x200
lvp_GetAccelerationStructureBuildSizesKHR
LVP: Size of BVH structure is 0x180
RTV: Rounding size of BVH structure up to 0x200
lvp_GetAccelerationStructureBuildSizesKHR
LVP: Size of BVH structure is 0x180
RTV: Rounding size of BVH structure up to 0x200
lvp_GetAccelerationStructureBuildSizesKHR
LVP: Size of BVH structure is 0x180
RTV: Rounding size of BVH structure up to 0x200
lvp_GetAccelerationStructureBuildSizesKHR
LVP: Size of BVH structure is 0x180
RTV: Rounding size of BVH structure up to 0x200
lvp_GetAccelerationStructureBuildSizesKHR
LVP: Size of BVH structure is 0x180
RTV: Rounding size of BVH structure up to 0x200
lvp_GetAccelerationStructureBuildSizesKHR
LVP: Size of BVH structure is 0x180
RTV: Rounding size of BVH structure up to 0x200
lvp_GetAccelerationStructureBuildSizesKHR
LVP: Size of BVH structure is 0x180
RTV: Rounding size of BVH structure up to 0x200
lvp_GetAccelerationStructureBuildSizesKHR
LVP: Size of BVH structure is 0x180
RTV: Rounding size of BVH structure up to 0x200
lvp_GetAccelerationStructureBuildSizesKHR
LVP: Size of BVH structure is 0x180
RTV: Rounding size of BVH structure up to 0x200
lvp_GetAccelerationStructureBuildSizesKHR
LVP: Size of BVH structure is 0x180
RTV: Rounding size of BVH structure up to 0x200
lvp_GetAccelerationStructureBuildSizesKHR
LVP: Size of BVH structure is 0x180
RTV: Rounding size of BVH structure up to 0x200
lvp_GetAccelerationStructureBuildSizesKHR
LVP: Size of BVH structure is 0x180
RTV: Rounding size of BVH structure up to 0x200
lvp_GetAccelerationStructureBuildSizesKHR
LVP: Size of BVH structure is 0x180
RTV: Rounding size of BVH structure up to 0x200
lvp_GetAccelerationStructureBuildSizesKHR
LVP: Size of BVH structure is 0x180
RTV: Rounding size of BVH structure up to 0x200
lvp_GetAccelerationStructureBuildSizesKHR
LVP: Size of BVH structure is 0x180
RTV: Rounding size of BVH structure up to 0x200
lvp_GetAccelerationStructureBuildSizesKHR
LVP: Size of BVH structure is 0x180
RTV: Rounding size of BVH structure up to 0x200
lvp_GetAccelerationStructureBuildSizesKHR
LVP: Size of BVH structure is 0x180
RTV: Rounding size of BVH structure up to 0x200
lvp_GetAccelerationStructureBuildSizesKHR
LVP: Size of BVH structure is 0x180
RTV: Rounding size of BVH structure up to 0x200
lvp_GetAccelerationStructureBuildSizesKHR
LVP: Size of BVH structure is 0x180
RTV: Rounding size of BVH structure up to 0x200
lvp_GetAccelerationStructureBuildSizesKHR
LVP: Size of BVH structure is 0x180
RTV: Rounding size of BVH structure up to 0x200
lvp_GetAccelerationStructureBuildSizesKHR
LVP: Size of BVH structure is 0x180
RTV: Rounding size of BVH structure up to 0x200
lvp_GetAccelerationStructureBuildSizesKHR
LVP: Size of BVH structure is 0x180
RTV: Rounding size of BVH structure up to 0x200
lvp_GetAccelerationStructureBuildSizesKHR
LVP: Size of BVH structure is 0x180
RTV: Rounding size of BVH structure up to 0x200
lvp_GetAccelerationStructureBuildSizesKHR
LVP: Size of BVH structure is 0x180
RTV: Rounding size of BVH structure up to 0x200
lvp_GetAccelerationStructureBuildSizesKHR
LVP: Size of BVH structure is 0x180
RTV: Rounding size of BVH structure up to 0x200
lvp_GetAccelerationStructureBuildSizesKHR
LVP: Size of BVH structure is 0x180
RTV: Rounding size of BVH structure up to 0x200
lvp_GetAccelerationStructureBuildSizesKHR
LVP: Size of BVH structure is 0x180
RTV: Rounding size of BVH structure up to 0x200
lvp_GetAccelerationStructureBuildSizesKHR
LVP: Size of BVH structure is 0x180
RTV: Rounding size of BVH structure up to 0x200
lvp_GetAccelerationStructureBuildSizesKHR
LVP: Size of BVH structure is 0x180
RTV: Rounding size of BVH structure up to 0x200
lvp_GetAccelerationStructureBuildSizesKHR
LVP: Size of BVH structure is 0x180
RTV: Rounding size of BVH structure up to 0x200
lvp_GetAccelerationStructureBuildSizesKHR
LVP: Size of BVH structure is 0x180
RTV: Rounding size of BVH structure up to 0x200
lvp_GetAccelerationStructureBuildSizesKHR
LVP: Size of BVH structure is 0x180
RTV: Rounding size of BVH structure up to 0x200
lvp_GetAccelerationStructureBuildSizesKHR
LVP: Size of BVH structure is 0x180
RTV: Rounding size of BVH structure up to 0x200
lvp_GetAccelerationStructureBuildSizesKHR
LVP: Size of BVH structure is 0x180
RTV: Rounding size of BVH structure up to 0x200
lvp_GetAccelerationStructureBuildSizesKHR
LVP: Size of BVH structure is 0x180
RTV: Rounding size of BVH structure up to 0x200
lvp_GetAccelerationStructureBuildSizesKHR
LVP: Size of BVH structure is 0x180
RTV: Rounding size of BVH structure up to 0x200
lvp_GetAccelerationStructureBuildSizesKHR
LVP: Size of BVH structure is 0x180
RTV: Rounding size of BVH structure up to 0x200
lvp_GetAccelerationStructureBuildSizesKHR
LVP: Size of BVH structure is 0x180
RTV: Rounding size of BVH structure up to 0x200
lvp_GetAccelerationStructureBuildSizesKHR
LVP: Size of BVH structure is 0x180
RTV: Rounding size of BVH structure up to 0x200
lvp_GetAccelerationStructureBuildSizesKHR
LVP: Size of BVH structure is 0x180
RTV: Rounding size of BVH structure up to 0x200
lvp_GetAccelerationStructureBuildSizesKHR
LVP: Size of BVH structure is 0x180
RTV: Rounding size of BVH structure up to 0x200
lvp_GetAccelerationStructureBuildSizesKHR
LVP: Size of BVH structure is 0x180
RTV: Rounding size of BVH structure up to 0x200
lvp_GetAccelerationStructureBuildSizesKHR
LVP: Size of BVH structure is 0x180
RTV: Rounding size of BVH structure up to 0x200
lvp_GetAccelerationStructureBuildSizesKHR
LVP: Size of BVH structure is 0x180
RTV: Rounding size of BVH structure up to 0x200
lvp_GetAccelerationStructureBuildSizesKHR
LVP: Size of BVH structure is 0x180
RTV: Rounding size of BVH structure up to 0x200
lvp_GetAccelerationStructureBuildSizesKHR
LVP: Size of BVH structure is 0x180
RTV: Rounding size of BVH structure up to 0x200
lvp_GetAccelerationStructureBuildSizesKHR
LVP: Size of BVH structure is 0x180
RTV: Rounding size of BVH structure up to 0x200
lvp_GetAccelerationStructureBuildSizesKHR
LVP: Size of BVH structure is 0x180
RTV: Rounding size of BVH structure up to 0x200
lvp_GetAccelerationStructureBuildSizesKHR
[...]
	Total_core_cache_stats_breakdown[BRU_RT_FILL][HIT_RESERVED] = 0
	Total_core_cache_stats_breakdown[BRU_RT_FILL][MISS] = 0
	Total_core_cache_stats_breakdown[BRU_RT_FILL][RESERVATION_FAIL] = 0
	Total_core_cache_stats_breakdown[BRU_RT_FILL][SECTOR_MISS] = 0
	Total_core_cache_stats_breakdown[LOCAL_ACC_W][HIT] = 0
	Total_core_cache_stats_breakdown[LOCAL_ACC_W][HIT_RESERVED] = 0
	Total_core_cache_stats_breakdown[LOCAL_ACC_W][MISS] = 0
	Total_core_cache_stats_breakdown[LOCAL_ACC_W][RESERVATION_FAIL] = 0
	Total_core_cache_stats_breakdown[LOCAL_ACC_W][SECTOR_MISS] = 0
	Total_core_cache_stats_breakdown[L1_WRBK_ACC][HIT] = 0
	Total_core_cache_stats_breakdown[L1_WRBK_ACC][HIT_RESERVED] = 0
	Total_core_cache_stats_breakdown[L1_WRBK_ACC][MISS] = 0
	Total_core_cache_stats_breakdown[L1_WRBK_ACC][RESERVATION_FAIL] = 0
	Total_core_cache_stats_breakdown[L1_WRBK_ACC][SECTOR_MISS] = 0
	Total_core_cache_stats_breakdown[L2_WRBK_ACC][HIT] = 0
	Total_core_cache_stats_breakdown[L2_WRBK_ACC][HIT_RESERVED] = 0
	Total_core_cache_stats_breakdown[L2_WRBK_ACC][MISS] = 0
	Total_core_cache_stats_breakdown[L2_WRBK_ACC][RESERVATION_FAIL] = 0
	Total_core_cache_stats_breakdown[L2_WRBK_ACC][SECTOR_MISS] = 0
	Total_core_cache_stats_breakdown[INST_ACC_R][HIT] = 0
	Total_core_cache_stats_breakdown[INST_ACC_R][HIT_RESERVED] = 0
	Total_core_cache_stats_breakdown[INST_ACC_R][MISS] = 0
	Total_core_cache_stats_breakdown[INST_ACC_R][RESERVATION_FAIL] = 0
	Total_core_cache_stats_breakdown[INST_ACC_R][SECTOR_MISS] = 0
	Total_core_cache_stats_breakdown[L1_WR_ALLOC_R][HIT] = 0
	Total_core_cache_stats_breakdown[L1_WR_ALLOC_R][HIT_RESERVED] = 0
	Total_core_cache_stats_breakdown[L1_WR_ALLOC_R][MISS] = 0
	Total_core_cache_stats_breakdown[L1_WR_ALLOC_R][RESERVATION_FAIL] = 0
	Total_core_cache_stats_breakdown[L1_WR_ALLOC_R][SECTOR_MISS] = 0
	Total_core_cache_stats_breakdown[L2_WR_ALLOC_R][HIT] = 0
	Total_core_cache_stats_breakdown[L2_WR_ALLOC_R][HIT_RESERVED] = 0
	Total_core_cache_stats_breakdown[L2_WR_ALLOC_R][MISS] = 0
	Total_core_cache_stats_breakdown[L2_WR_ALLOC_R][RESERVATION_FAIL] = 0
	Total_core_cache_stats_breakdown[L2_WR_ALLOC_R][SECTOR_MISS] = 0
	Total_core_cache_stats_breakdown[GLOBAL_ACC_R][TOTAL_ACCESS] = 1417275
	Total_core_cache_stats_breakdown[GLOBAL_ACC_W][TOTAL_ACCESS] = 570108
	Total_core_cache_stats_breakdown[GLOBAL_ACC_R]_miss_rate = 0.4099
RT_Total_core_cache_stats_breakdown:
	rt_read_cold_miss = 2666
	rt_read_other_miss = 10641
	rt_stats[READ][HIT] = 234682
	rt_stats[READ][HIT_RESERVED] = 0
	rt_stats[READ][MISS] = 13307
	rt_stats[READ][RESERVATION_FAIL] = 4520
	rt_stats[READ][SECTOR_MISS] = 2684
	rt_read_miss_rate = 0.0638
	rt_stats[WRITE][HIT] = 0
	rt_stats[WRITE][HIT_RESERVED] = 0
	rt_stats[WRITE][MISS] = 130386
	rt_stats[WRITE][RESERVATION_FAIL] = 26386
	rt_stats[WRITE][SECTOR_MISS] = 0
	rt_overall_miss_rate = 0.3841

Total_core_cache_fail_stats:
	Total_core_cache_fail_stats_breakdown[GLOBAL_ACC_R][MISS_QUEUE_FULL] = 32855
	Total_core_cache_fail_stats_breakdown[GLOBAL_ACC_R][MSHR_MERGE_ENTRY_FAIL] = 1175
	Total_core_cache_fail_stats_breakdown[GLOBAL_ACC_W][MISS_QUEUE_FULL] = 27026
ctas_completed 1, Shader 0 warp_id issue ditsribution:
warp_id:
0, 1, 2, 3, 4, 5, 6, 7, 8, 9, 10, 11, 12, 13, 14, 15, 
distro:
93895, 90657, 86827, 99481, 85962, 90848, 89677, 92571, 101632, 88731, 104164, 92262, 91197, 99818, 96019, 90289, 
gpgpu_n_tot_thrd_icount = 95357120
gpgpu_n_tot_w_icount = 2979910
gpgpu_n_stall_shd_mem = 1363124
gpgpu_n_mem_read_local = 0
gpgpu_n_mem_write_local = 0
gpgpu_n_mem_read_global = 152487
gpgpu_n_mem_write_global = 570108
gpgpu_n_mem_texture = 0
gpgpu_n_mem_const = 0
gpgpu_n_rt_mem:
33000	114675	64170	12283	0	0	26472	0	
gpgpu_n_local_load_insn  = 0
gpgpu_n_local_store_insn = 0
gpgpu_n_global_load_insn  = 2001559
gpgpu_n_global_store_insn = 444148
gpgpu_n_shmem_insn = 0
gpgpu_n_sstarr_insn = 0
gpgpu_n_tex_insn = 0
gpgpu_n_const_mem_insn = 0
gpgpu_n_param_mem_insn = 0
gpgpu_n_rt_insn = 31116
gpgpu_n_rt_access_insn = 577257
gpgpu_n_shmem_bkconflict = 0
gpgpu_n_cache_bkconflict = 0
gpgpu_n_intrawarp_mshr_merge = 0
gpgpu_n_cmem_portconflict = 0
gpgpu_stall_shd_mem[c_mem][resource_stall] = 0
gpgpu_stall_shd_mem[s_mem][bk_conf] = 0
gpgpu_stall_shd_mem[gl_mem][resource_stall] = 1363124
gpgpu_stall_shd_mem[gl_mem][coal_stall] = 0
gpgpu_stall_shd_mem[gl_mem][data_port_stall] = 0
gpu_reg_bank_conflict_stalls = 0
rt_avg_warp_latency = 978.849854
rt_avg_thread_latency = 172.601242
rt_avg_efficiency = 0.182745
rt_avg_warp_occupancy = 0.462169
rt_total_cacheline_fetched = 125983	122895	
rt_total_intersection_stages = 1988724	1980324	
rt_op_intensity = 15.785654	16.113951	
rt_perf = 2.615190	2.583296	
rt_avg_op_intensity = 15.949802
rt_avg_performance = 2.599243
rt_writes = 130386
rt_max_mem_store_q = 694
rt_avg_mem_store_cycles = 78386.000000
rt_cycles = 0.666148
rt_total_cycles = 763519.500000
rt_total_cycles_sum = 1527039
rt_cycles_dist:	760451	766588
rt_store_cycles_dist:	76606	80166
rt_latency_dist = 0.00	0.00	176.96	80.91	836.64	0.00	166.84	3.81	2.97	24.72	0.00	20.40	34.96	26.47	44.26	
warp_dist_rt = 1435521	642807	176123	5372	1118	2370	332	0	0	0	6058	
warp_dist_empty = 84896	55592	43410	18079	24759	2042965	0	0	0	0	0	
Warp Occupancy Distribution:
Stall:2945178	W0_Idle:224354	W0_Scoreboard:2929362	W1:1198191	W2:313678	W3:183748	W4:118444	W5:88247	W6:72709	W7:67875	W8:54132	W9:46887	W10:40719	W11:33539	W12:35133	W13:31460	W14:30807	W15:26737	W16:31617	W17:22089	W18:18293	W19:21305	W20:16981	W21:10997	W22:11794	W23:12214	W24:10546	W25:6517	W26:5184	W27:4149	W28:4938	W29:7362	W30:7925	W31:194639	W32:251054
single_issue_nums: WS0:749578	WS1:736853	WS2:751446	WS3:742033	
dual_issue_nums: WS0:0	WS1:0	WS2:0	WS3:0	
traffic_breakdown_coretomem[GLOBAL_ACC_R] = 1219896 {8:152487,}
traffic_breakdown_coretomem[GLOBAL_ACC_W] = 22804320 {40:570108,}
traffic_breakdown_memtocore[GLOBAL_ACC_R] = 6099480 {40:152487,}
traffic_breakdown_memtocore[GLOBAL_ACC_W] = 4560864 {8:570108,}
maxmflatency = 3387 
max_icnt2mem_latency = 2325 
maxmrqlatency = 1731 
max_icnt2sh_latency = 2 
averagemflatency = 379 
avg_icnt2mem_latency = 123 
avg_mrq_latency = 144 
avg_icnt2sh_latency = 2 
mrq_lat_table:38386 	2046 	2923 	6507 	22173 	23511 	31753 	38728 	30759 	9683 	677 	0 	0 	0 	0 	0 	0 	0 	0 	0 	0 	0 	0 	0 	0 	0 	0 	0 	0 	0 	0 	0 	
dq_lat_table:0 	0 	0 	0 	0 	0 	0 	0 	0 	0 	0 	0 	0 	0 	0 	0 	0 	0 	0 	0 	0 	0 	0 	0 	0 	0 	0 	0 	0 	0 	0 	0 	
mf_lat_table:0 	0 	0 	0 	0 	0 	0 	316774 	268012 	113156 	22720 	1933 	0 	0 	0 	0 	0 	0 	0 	0 	0 	0 	0 	0 	0 	0 	0 	0 	0 	0 	0 	0 	
icnt2mem_lat_table:0 	21300 	14214 	14309 	225032 	143802 	116599 	92832 	62448 	25112 	6861 	86 	0 	0 	0 	0 	0 	0 	0 	0 	0 	0 	0 	0 	
icnt2sh_lat_table:0 	722595 	0 	0 	0 	0 	0 	0 	0 	0 	0 	0 	0 	0 	0 	0 	0 	0 	0 	0 	0 	0 	0 	0 	
mf_lat_pw_table:0 	0 	0 	0 	0 	0 	0 	631 	1348 	237 	38 	2 	0 	0 	0 	0 	0 	0 	0 	0 	0 	0 	0 	0 	0 	0 	0 	0 	0 	0 	0 	0 	
maximum concurrent accesses to same row:
dram[0]:        20        32        19        32        19        32        18        32        18        32        17        32        22        32        17        32 
maximum service time to same row:
dram[0]:     25614     17113     17029     31677     18059     18543     10940     15924     11583     19646     11205     13097     14864     22475     16680     16986 
average row accesses per activate:
dram[0]:  2.516205  6.616523  2.381932  6.762658  2.615122  7.268226  2.444632  7.137309  2.368788  5.534483  2.461922  5.064149  2.621024  6.025210  2.376974  5.842579 
average row locality = 207146/62677 = 3.304976
number of total memory accesses made:
dram[0]:         0         0         0         0         0         0         0         0         0         0         0         0         0         0         0         0 
total accesses: 0
min_bank_accesses = 0!
min_chip_accesses = 0!
number of total read accesses:
dram[0]:     14250     19450     12490     19148     14646     19200     13622     18676     14854     20090     17214     20058     16126     19184     14434     21446 
total dram reads = 274888
bank skew: 21446/12490 = 1.72
chip skew: 274888/274888 = 1.00
number of total write accesses:
dram[0]:     23256      4642     22628      5434     22162      4518     22844      4496     23150      5512     25128      5402     25004      5450     21034      4082 
total dram writes = 224742
bank skew: 25128/4082 = 6.16
chip skew: 224742/224742 = 1.00
average mf latency per bank:
dram[0]:        704       325       703       332       695       306       715       341       669       356       660       336       673       343       687       323
maximum mf latency per bank:
dram[0]:       3270      2409      3302      2235      3387      2400      2749      2560      2939      3010      2968      3244      2452      2922      3198      2621
DRAM[0]: 16 bks, busW=2 BL=8 CL=20, tRRD=10 tCCD=4, tRCD=20 tRAS=50 tRP=20 tRC=62
n_cmd=2938898 n_nop=2331711 n_act=62677 n_pre=62661 n_ref_event=4525216909631963960 n_req=207146 n_rd=274888 n_rd_L2_A=0 n_write=0 n_wr_bk=224742 bw_util=0.68
n_activity=2411208 dram_eff=0.8288
bk0: 14250a 1551379i bk1: 19450a 2366696i bk2: 12490a 1608651i bk3: 19148a 2395916i bk4: 14646a 1637322i bk5: 19200a 2414259i bk6: 13622a 1579380i bk7: 18676a 2431813i bk8: 14854a 1525514i bk9: 20090a 2303036i bk10: 17214a 1421138i bk11: 20058a 2288255i bk12: 16126a 1506210i bk13: 19184a 2346901i bk14: 14434a 1530883i bk15: 21446a 2328572i 

------------------------------------------------------------------------

Row_Buffer_Locality = 0.697426
Row_Buffer_Locality_read = 0.856101
Row_Buffer_Locality_write = 0.384537
Bank_Level_Parallism = 6.840499
Bank_Level_Parallism_Col = 0.000000
Bank_Level_Parallism_Ready = 3.222131
write_to_read_ratio_blp_rw_average = 0.000000
GrpLevelPara = 0.000000 

BW Util details:
bwutil = 0.680024 
total_CMD = 2938898 
util_bw = 1998520 
Wasted_Col = 236086 
Wasted_Row = 107388 
Idle = 596904 

BW Util Bottlenecks: 
RCDc_limit = 91124 
RCDWRc_limit = 80639 
WTRc_limit = 243752 
RTWc_limit = 292778 
CCDLc_limit = 0 
rwq = 0 
CCDLc_limit_alone = 0 
WTRc_limit_alone = 243752 
RTWc_limit_alone = 292778 

Commands details: 
total_CMD = 2938898 
n_nop = 2331711 
Read = 274888 
Write = 0 
L2_Alloc = 0 
L2_WB = 224742 
n_act = 62677 
n_pre = 62661 
n_ref = 4525216909631963960 
n_req = 207146 
total_req = 499630 

Dual Bus Interface Util: 
issued_total_row = 125338 
issued_total_col = 499630 
Row_Bus_Util =  0.042648 
CoL_Bus_Util = 0.170006 
Either_Row_CoL_Bus_Util = 0.206604 
Issued_on_Two_Bus_Simul_Util = 0.006050 
issued_two_Eff = 0.029284 
queue_avg = 26.148945 


dram_util_bins: 0 0 0 0 0 0 0 0 0 0
dram_eff_bins: 0 0 0 0 0 0 0 0 0 0
mrqq: max=64 avg=26.1489

========= L2 cache stats =========
L2_cache_bank[0]: Access = 722595, Miss = 485622, Miss_rate = 0.672, Pending_hits = 392, Reservation_fails = 1684
L2_total_cache_accesses = 722595
L2_total_cache_misses = 485622
L2_total_cache_miss_rate = 0.6721
L2_total_cache_pending_hits = 392
L2_total_cache_reservation_fails = 1684
L2_total_cache_breakdown:
	L2_cache_stats_breakdown[GLOBAL_ACC_R][HIT] = 14906
	L2_cache_stats_breakdown[GLOBAL_ACC_R][HIT_RESERVED] = 137
	L2_cache_stats_breakdown[GLOBAL_ACC_R][MISS] = 62666
	L2_cache_stats_breakdown[GLOBAL_ACC_R][RESERVATION_FAIL] = 1684
	L2_cache_stats_breakdown[GLOBAL_ACC_R][SECTOR_MISS] = 74778
	L2_cache_stats_breakdown[LOCAL_ACC_R][HIT] = 0
	L2_cache_stats_breakdown[LOCAL_ACC_R][HIT_RESERVED] = 0
	L2_cache_stats_breakdown[LOCAL_ACC_R][MISS] = 0
	L2_cache_stats_breakdown[LOCAL_ACC_R][RESERVATION_FAIL] = 0
	L2_cache_stats_breakdown[LOCAL_ACC_R][SECTOR_MISS] = 0
	L2_cache_stats_breakdown[CONST_ACC_R][HIT] = 0
	L2_cache_stats_breakdown[CONST_ACC_R][HIT_RESERVED] = 0
	L2_cache_stats_breakdown[CONST_ACC_R][MISS] = 0
	L2_cache_stats_breakdown[CONST_ACC_R][RESERVATION_FAIL] = 0
	L2_cache_stats_breakdown[CONST_ACC_R][SECTOR_MISS] = 0
	L2_cache_stats_breakdown[TEXTURE_ACC_R][HIT] = 0
	L2_cache_stats_breakdown[TEXTURE_ACC_R][HIT_RESERVED] = 0
	L2_cache_stats_breakdown[TEXTURE_ACC_R][MISS] = 0
	L2_cache_stats_breakdown[TEXTURE_ACC_R][RESERVATION_FAIL] = 0
	L2_cache_stats_breakdown[TEXTURE_ACC_R][SECTOR_MISS] = 0
	L2_cache_stats_breakdown[GLOBAL_ACC_W][HIT] = 221675
	L2_cache_stats_breakdown[GLOBAL_ACC_W][HIT_RESERVED] = 255
	L2_cache_stats_breakdown[GLOBAL_ACC_W][MISS] = 51149
	L2_cache_stats_breakdown[GLOBAL_ACC_W][RESERVATION_FAIL] = 0
	L2_cache_stats_breakdown[GLOBAL_ACC_W][SECTOR_MISS] = 297029
	L2_cache_stats_breakdown[BRU_ST_SPILL][HIT] = 0
	L2_cache_stats_breakdown[BRU_ST_SPILL][HIT_RESERVED] = 0
	L2_cache_stats_breakdown[BRU_ST_SPILL][MISS] = 0
	L2_cache_stats_breakdown[BRU_ST_SPILL][RESERVATION_FAIL] = 0
	L2_cache_stats_breakdown[BRU_ST_SPILL][SECTOR_MISS] = 0
	L2_cache_stats_breakdown[BRU_ST_FILL][HIT] = 0
	L2_cache_stats_breakdown[BRU_ST_FILL][HIT_RESERVED] = 0
	L2_cache_stats_breakdown[BRU_ST_FILL][MISS] = 0
	L2_cache_stats_breakdown[BRU_ST_FILL][RESERVATION_FAIL] = 0
	L2_cache_stats_breakdown[BRU_ST_FILL][SECTOR_MISS] = 0
	L2_cache_stats_breakdown[BRU_RT_SPILL][HIT] = 0
	L2_cache_stats_breakdown[BRU_RT_SPILL][HIT_RESERVED] = 0
	L2_cache_stats_breakdown[BRU_RT_SPILL][MISS] = 0
	L2_cache_stats_breakdown[BRU_RT_SPILL][RESERVATION_FAIL] = 0
	L2_cache_stats_breakdown[BRU_RT_SPILL][SECTOR_MISS] = 0
	L2_cache_stats_breakdown[BRU_RT_FILL][HIT] = 0
	L2_cache_stats_breakdown[BRU_RT_FILL][HIT_RESERVED] = 0
	L2_cache_stats_breakdown[BRU_RT_FILL][MISS] = 0
	L2_cache_stats_breakdown[BRU_RT_FILL][RESERVATION_FAIL] = 0
	L2_cache_stats_breakdown[BRU_RT_FILL][SECTOR_MISS] = 0
	L2_cache_stats_breakdown[LOCAL_ACC_W][HIT] = 0
	L2_cache_stats_breakdown[LOCAL_ACC_W][HIT_RESERVED] = 0
	L2_cache_stats_breakdown[LOCAL_ACC_W][MISS] = 0
	L2_cache_stats_breakdown[LOCAL_ACC_W][RESERVATION_FAIL] = 0
	L2_cache_stats_breakdown[LOCAL_ACC_W][SECTOR_MISS] = 0
	L2_cache_stats_breakdown[L1_WRBK_ACC][HIT] = 0
	L2_cache_stats_breakdown[L1_WRBK_ACC][HIT_RESERVED] = 0
	L2_cache_stats_breakdown[L1_WRBK_ACC][MISS] = 0
	L2_cache_stats_breakdown[L1_WRBK_ACC][RESERVATION_FAIL] = 0
	L2_cache_stats_breakdown[L1_WRBK_ACC][SECTOR_MISS] = 0
	L2_cache_stats_breakdown[L2_WRBK_ACC][HIT] = 0
	L2_cache_stats_breakdown[L2_WRBK_ACC][HIT_RESERVED] = 0
	L2_cache_stats_breakdown[L2_WRBK_ACC][MISS] = 0
	L2_cache_stats_breakdown[L2_WRBK_ACC][RESERVATION_FAIL] = 0
	L2_cache_stats_breakdown[L2_WRBK_ACC][SECTOR_MISS] = 0
	L2_cache_stats_breakdown[INST_ACC_R][HIT] = 0
	L2_cache_stats_breakdown[INST_ACC_R][HIT_RESERVED] = 0
	L2_cache_stats_breakdown[INST_ACC_R][MISS] = 0
	L2_cache_stats_breakdown[INST_ACC_R][RESERVATION_FAIL] = 0
	L2_cache_stats_breakdown[INST_ACC_R][SECTOR_MISS] = 0
	L2_cache_stats_breakdown[L1_WR_ALLOC_R][HIT] = 0
	L2_cache_stats_breakdown[L1_WR_ALLOC_R][HIT_RESERVED] = 0
	L2_cache_stats_breakdown[L1_WR_ALLOC_R][MISS] = 0
	L2_cache_stats_breakdown[L1_WR_ALLOC_R][RESERVATION_FAIL] = 0
	L2_cache_stats_breakdown[L1_WR_ALLOC_R][SECTOR_MISS] = 0
	L2_cache_stats_breakdown[L2_WR_ALLOC_R][HIT] = 0
	L2_cache_stats_breakdown[L2_WR_ALLOC_R][HIT_RESERVED] = 0
	L2_cache_stats_breakdown[L2_WR_ALLOC_R][MISS] = 0
	L2_cache_stats_breakdown[L2_WR_ALLOC_R][RESERVATION_FAIL] = 0
	L2_cache_stats_breakdown[L2_WR_ALLOC_R][SECTOR_MISS] = 0
	L2_cache_stats_breakdown[GLOBAL_ACC_R][TOTAL_ACCESS] = 152487
	L2_cache_stats_breakdown[GLOBAL_ACC_W][TOTAL_ACCESS] = 570108
	L2_cache_stats_breakdown[GLOBAL_ACC_R]_miss_rate = 0.9013
RT_L2_cache_stats_breakdown:
	rt_read_cold_miss = 642
	rt_read_other_miss = 3569
	rt_stats[READ][HIT] = 1660
	rt_stats[READ][HIT_RESERVED] = 92
	rt_stats[READ][MISS] = 4211
	rt_stats[READ][RESERVATION_FAIL] = 9
	rt_stats[READ][SECTOR_MISS] = 8233
	rt_read_miss_rate = 0.8766
	rt_stats[WRITE][HIT] = 88375
	rt_stats[WRITE][HIT_RESERVED] = 0
	rt_stats[WRITE][MISS] = 16906
	rt_stats[WRITE][RESERVATION_FAIL] = 0
	rt_stats[WRITE][SECTOR_MISS] = 25105
	rt_overall_miss_rate = 0.3766
L2_total_cache_reservation_fail_breakdown:
	L2_cache_stats_fail_breakdown[GLOBAL_ACC_R][MISS_QUEUE_FULL] = 445
	L2_cache_stats_fail_breakdown[GLOBAL_ACC_R][MSHR_ENTRY_FAIL] = 1239
L2_cache_data_port_util = 0.250
L2_cache_fill_port_util = 0.120
Stats for Kernel 0 Classification

Min 0.000000 Max 15.000000 Average 3.169099 
[ 360924 20053847 0 1008276 306824 2436619 0 0 0 0 0 1184103 31116 96309 0 2502155 0 0 0 0 0 0 0 0 0 ]
Stats for Kernel 0 OP Classification

Min 0.000000 Max 147.000000 Average 39.297500 
[ 118630 4546020 0 0 262441 0 0 0 0 0 0 1207355 0 0 0 0 0 0 0 0 0 0 0 219135 0 0 0 2650 0 0 0 2001559 0 2650 0 0 0 0 22136 0 44272 8144910 0 3407892 657559 0 0 31116 84285 0 0 0 0 0 0 169733 0 0 161845 0 40204 0 255693 1123758 0 0 281728 281728 0 0 91587 0 0 435060 0 0 0 0 0 0 0 0 0 0 0 0 0 0 0 0 0 0 0 563456 0 0 0 9088 31116 1345948 ]
Ray tracing memory access distribution: 
97059	283869	65943	65193	0	0	65193	0	
rt_num_hits = 0
rt_num_any_hits = 0
rt_n_anyhit_rays = 0
rt_n_closesthit_rays = 31116
rt_n_total_rays = 31116
rt_max_tree_depth = 7
rt_max_nodes_per_ray = 71
rt_tot_nodes_per_ray = 415005
rt_avg_nodes_per_ray = 13.337351
g_inst_type_latency = 0 11480770 3890250 0 0 6662037 2578630 0 51691886 0 0 3151437 4094340 1079039 0 0 77368 103893 0 0 0 0 0 0 0 0 0 0 
inst_class_by_shader
0:224534	7299804	0	673157	45440	634575	0	0	0	0	0	383075	31116	96309	0	65536	0	0	0	0	
1:8980	422060	0	17960	8980	80820	0	0	0	0	0	26940	0	0	0	0	0	0	0	0	
2:0	0	0	0	0	0	0	0	0	0	0	0	0	0	0	0	0	0	0	0	
3:44272	8321198	0	133604	146066	819032	0	0	0	0	0	287768	0	0	0	0	0	0	0	0	
4:0	0	0	0	0	0	0	0	0	0	0	0	0	0	0	0	0	0	0	0	
5:0	0	0	0	0	0	0	0	0	0	0	0	0	0	0	0	0	0	0	0	
6:83138	4010785	0	183555	106338	902192	0	0	0	0	0	486320	0	0	0	0	0	0	0	0	
7:0	0	0	0	0	0	0	0	0	0	0	0	0	0	0	0	0	0	0	0	
8:0	0	0	0	0	0	0	0	0	0	0	0	0	0	0	0	0	0	0	0	
9:0	0	0	0	0	0	0	0	0	0	0	0	0	0	0	0	0	0	0	0	
10:0	0	0	0	0	0	0	0	0	0	0	0	0	0	0	0	0	0	0	0	
11:0	0	0	0	0	0	0	0	0	0	0	0	0	0	0	0	0	0	0	0	
12:0	0	0	0	0	0	0	0	0	0	0	0	0	0	0	0	0	0	0	0	
13:0	0	0	0	0	0	0	0	0	0	0	0	0	0	0	0	0	0	0	0	
14:0	0	0	0	0	0	0	0	0	0	0	0	0	0	0	0	0	0	0	0	
15:0	0	0	0	0	0	0	0	0	0	0	0	0	0	0	0	0	0	0	0	

icnt_total_pkts_mem_to_simt=722595
icnt_total_pkts_simt_to_mem=722595
LD_mem_lat_dist  0 0 2.14913 0 0 0 0 67.5122 160.445 11.9992 1.93315 13.6691 104.744 80.2967 16.5038 12.4464 6.83545 0.876796 0.360031 0 9.46612 1 1 0 0 0 0
ST_mem_lat_dist  0 0 0 0 0 0 0 6.6903 108.424 162.732 0 0 0 0 0 0 0 0 0 0 13.8371 14.2285 1 1 0 0 0
----------------------------Interconnect-DETAILS--------------------------------
Req_Network_injected_packets_num = 722595
Req_Network_cycles = 1146171
Req_Network_injected_packets_per_cycle =       0.6304 
Req_Network_conflicts_per_cycle =       0.2742
Req_Network_conflicts_per_cycle_util =       0.4336
Req_Bank_Level_Parallism =       0.9971
Req_Network_in_buffer_full_per_cycle =       0.0009
Req_Network_in_buffer_avg_util =      20.3699
Req_Network_out_buffer_full_per_cycle =       0.0018
Req_Network_out_buffer_avg_util =      23.7938

Reply_Network_injected_packets_num = 722595
Reply_Network_cycles = 1146171
Reply_Network_injected_packets_per_cycle =        0.6304
Reply_Network_conflicts_per_cycle =        0.0000
Reply_Network_conflicts_per_cycle_util =       0.0000
Reply_Bank_Level_Parallism =       1.0000
Reply_Network_in_buffer_full_per_cycle =       0.0000
Reply_Network_in_buffer_avg_util =       0.0000
Reply_Network_out_buffer_full_per_cycle =       0.0000
Reply_Network_out_buffer_avg_util =       0.3152
----------------------------END-of-Interconnect-DETAILS-------------------------


gpgpu_simulation_time = 0 days, 0 hrs, 3 min, 27 sec (207 sec)
gpgpu_simulation_rate = 121655 (inst/sec)
gpgpu_simulation_rate = 5537 (cycle/sec)
gpgpu_silicon_slowdown = 246523x
Shader 0 trace_ray added.
Shader 1 trace_ray added.
Shader 2 trace_ray added.
Shader 3 trace_ray added.
Shader 4 trace_ray added.
Shader 5 trace_ray added.
Shader 6 trace_ray added.
Shader 7 trace_ray added.
Shader 8 trace_ray added.
Shader 9 trace_ray added.
Destroy streams for kernel 1: size 0
Max simulated kernels of 1 has reached, exiting.
GPGPU-Sim: *** exit detected ***
