MESA: Linking to LLVM resource bind packing.
Vulkan SDK Header Version: 182

Vulkan Instance Extensions: 
- VK_KHR_device_group_creation (0.0.1)
- VK_KHR_external_fence_capabilities (0.0.1)
- VK_KHR_external_memory_capabilities (0.0.1)
- VK_KHR_external_semaphore_capabilities (0.0.1)
- VK_KHR_get_physical_device_properties2 (0.0.2)
- VK_KHR_get_surface_capabilities2 (0.0.1)
- VK_KHR_surface (0.0.25)
- VK_KHR_surface_protected_capabilities (0.0.1)
- VK_KHR_xcb_surface (0.0.6)
- VK_KHR_xlib_surface (0.0.6)
- VK_EXT_debug_report (0.0.10)
- VK_EXT_debug_utils (0.0.2)

Vulkan Instance Layers: 
- VK_LAYER_NV_optimus (1.3.236) : NVIDIA Optimus layer
- VK_LAYER_LUNARG_device_simulation (1.2.182) : LunarG device simulation layer
- VK_LAYER_LUNARG_api_dump (1.2.182) : LunarG API dump layer
- VK_LAYER_KHRONOS_validation (1.2.182) : Khronos Validation Layer
- VK_LAYER_LUNARG_monitor (1.2.182) : Execution Monitoring Layer
- VK_LAYER_LUNARG_screenshot (1.2.182) : LunarG image capture layer
- VK_LAYER_LUNARG_gfxreconstruct (1.2.182) : GFXReconstruct Capture Layer Version 0.9.8
- VK_LAYER_KHRONOS_synchronization2 (1.2.182) : Khronos Synchronization2 layer

Vulkan Devices: 
- [0] UnknownVendor 'llvmpipe (LLVM 10.0.0, 256 bits)' (CPU: vulkan 1.3.254, driver llvmpipe Mesa 23.2.0-devel (git-45f329e0bb) (LLVM 10.0.0) - 0.0.1)

Setting Device [0]:
Getting ray tracing pipeline properties...
- loading '../assets/textures/white.png'... (1 x 1 x 3) 3.8205e-05s
RTV: Creating device buffer Vertices of size 9835452
LVP: vkBuffer size 9835452 created at 0x556b94d64358
RTV: New vkBuffer created at 0x556b94d64358
LLVM: llvmpipe_resource_bind_backing: pipe_screen 0x556b949076f0; pipe_resource 0x556b9576deb0; llvmpipe_resource 0x556b9576deb0; pipe_memory_allocation 0x7f9f5d4be000;
LVP: Binding lvp_buffer 0x556b94b019e0: buffer->bo: 0x556b9576deb0; buffer->pmem: 0x7f9f5d4be000; memory-offset: 0;


        *** GPGPU-Sim Simulator Version 4.0.0  [build gpgpu-sim_git-commit-4930c4c3cdbc4296555441708ee65862bf1eac8a_modified_0.0] ***


GPGPU-Sim PTX: simulation mode -1058838766 (can change with PTX_SIM_MODE_FUNC environment variable:
               1=functional simulation only, 0=detailed performance simulator)
GPGPU-Sim PTX: overriding embedded ptx with ptx file (PTX_SIM_USE_PTX_FILE is set)
GPGPU-Sim: Configuration options:

-save_embedded_ptx                      0 # saves ptx files embedded in binary as <n>.ptx
-keep                                   0 # keep intermediate files created by GPGPU-Sim when interfacing with external programs
-gpgpu_ptx_save_converted_ptxplus                    0 # Saved converted ptxplus to a file
-gpgpu_occupancy_sm_number                   75 # The SM number to pass to ptxas when getting register usage for computing GPU occupancy. This parameter is required in the config.
-ptx_opcode_latency_int      4,13,4,5,145,32 # Opcode latencies for integers <ADD,MAX,MUL,MAD,DIV,SHFL>Default 1,1,19,25,145,32
-ptx_opcode_latency_fp          4,13,4,5,39 # Opcode latencies for single precision floating points <ADD,MAX,MUL,MAD,DIV>Default 1,1,1,1,30
-ptx_opcode_latency_dp         8,19,8,8,330 # Opcode latencies for double precision floating points <ADD,MAX,MUL,MAD,DIV>Default 8,8,8,8,335
-ptx_opcode_latency_sfu                  100 # Opcode latencies for SFU instructionsDefault 8
-ptx_opcode_latency_tesnor                   64 # Opcode latencies for Tensor instructionsDefault 64
-ptx_opcode_initiation_int          2,2,2,2,8,4 # Opcode initiation intervals for integers <ADD,MAX,MUL,MAD,DIV,SHFL>Default 1,1,4,4,32,4
-ptx_opcode_initiation_fp            2,2,2,2,4 # Opcode initiation intervals for single precision floating points <ADD,MAX,MUL,MAD,DIV>Default 1,1,1,1,5
-ptx_opcode_initiation_dp          4,4,4,4,130 # Opcode initiation intervals for double precision floating points <ADD,MAX,MUL,MAD,DIV>Default 8,8,8,8,130
-ptx_opcode_initiation_sfu                    8 # Opcode initiation intervals for sfu instructionsDefault 8
-ptx_opcode_initiation_tensor                   64 # Opcode initiation intervals for tensor instructionsDefault 64
-cdp_latency         7200,8000,100,12000,1600 # CDP API latency <cudaStreamCreateWithFlags, cudaGetParameterBufferV2_init_perWarp, cudaGetParameterBufferV2_perKernel, cudaLaunchDeviceV2_init_perWarp, cudaLaunchDevicV2_perKernel>Default 7200,8000,100,12000,1600
-network_mode                           2 # Interconnection network mode
-inter_config_file                   mesh # Interconnection network config file
-icnt_in_buffer_limit                  512 # in_buffer_limit
-icnt_out_buffer_limit                  512 # out_buffer_limit
-icnt_subnets                           2 # subnets
-icnt_arbiter_algo                      1 # arbiter_algo
-icnt_verbose                           0 # inct_verbose
-icnt_grant_cycles                      1 # grant_cycles
-gpgpu_ptx_use_cuobjdump                    1 # Use cuobjdump to extract ptx and sass from binaries
-gpgpu_experimental_lib_support                    0 # Try to extract code from cuda libraries [Broken because of unknown cudaGetExportTable]
-checkpoint_option                      0 #  checkpointing flag (0 = no checkpoint)
-checkpoint_kernel                      1 #  checkpointing during execution of which kernel (1- 1st kernel)
-checkpoint_CTA                         0 #  checkpointing after # of CTA (< less than total CTA)
-resume_option                          0 #  resume flag (0 = no resume)
-resume_kernel                          0 #  Resume from which kernel (1= 1st kernel)
-resume_CTA                             0 #  resume from which CTA 
-checkpoint_CTA_t                       0 #  resume from which CTA 
-checkpoint_insn_Y                      0 #  resume from which CTA 
-gpgpu_ptx_convert_to_ptxplus                    0 # Convert SASS (native ISA) to ptxplus and run ptxplus
-gpgpu_ptx_force_max_capability                   75 # Force maximum compute capability
-gpgpu_ptx_inst_debug_to_file                    0 # Dump executed instructions' debug information to file
-gpgpu_ptx_inst_debug_file       inst_debug.txt # Executed instructions' debug output file
-gpgpu_ptx_inst_debug_thread_uid                    1 # Thread UID for executed instructions' debug output
-gpgpu_simd_model                       1 # 1 = post-dominator
-gpgpu_simd_rec_time_out                   -1 # -1 = no reconvergence time out
-gpgpu_simd_rec_size                    6 # number of physical entries in the reconvergence table
-gpgpu_simd_st_size                     6 # number of physical entries in the splits table
-gpgpu_simd_rec_replacement                    0 # reconvergence table replacement policy
-gpgpu_simd_st_replacement                    0 # splits table replacement policy
-gpgpu_shader_core_pipeline              1024:32 # shader core pipeline config, i.e., {<nthread>:<warpsize>}
-gpgpu_tex_cache:l1  N:4:128:256,L:R:m:N:L,T:512:8,128:2 # per-shader L1 texture cache  (READ-ONLY) config  {<nsets>:<bsize>:<assoc>,<rep>:<wr>:<alloc>:<wr_alloc>,<mshr>:<N>:<merge>,<mq>:<rf>}
-gpgpu_const_cache:l1 N:128:64:8,L:R:f:N:L,S:2:64,4 # per-shader L1 constant memory cache  (READ-ONLY) config  {<nsets>:<bsize>:<assoc>,<rep>:<wr>:<alloc>:<wr_alloc>,<mshr>:<N>:<merge>,<mq>} 
-gpgpu_rt_cache:l1   S:32:128:16,L:R:m:L:P,A:256:256,32:0,32 # per-shader L1 constant memory cache  (READ-ONLY) config  {<nsets>:<bsize>:<assoc>,<rep>:<wr>:<alloc>:<wr_alloc>,<mshr>:<N>:<merge>,<mq>} 
-gpgpu_rt_use_l1                        1 # use existing L1 cache instead of dedicated L0 cache 
-gpgpu_rt_perfect_mem                    0 # assume 0 latency BVH accesses 
-gpgpu_rt_coherence_engine                    0 # enable coherency engine (ray sorting) 
-gpgpu_rt_coherence_engine_config 100,10,16,g,0,3,2,0.25 # max cycles, hash 
-gpgpu_rt_disable_rt_cache                    0 # bypass RT cache and connect RT unit directly to interconnect 
-gpgpu_rt_max_warps                     4 # max number of warps concurrently in one rt core 
-gpgpu_rt_max_mshr                     64 # max number of MSHR entries in RT unit 
-gpgpu_rt_coalesce_warps                    0 # try to coalesce memory requests between warps 
-gpgpu_rt_intersection_latency        4,8,8,4,8,8,8 # latency of pipelined intersection tests (7 types)
-gpgpu_rt_intersection_table_type                    0 # type of intersection table
-gpgpu_cache:il1     N:64:128:16,L:R:f:N:L,S:2:48,4 # shader L1 instruction cache config  {<nsets>:<bsize>:<assoc>,<rep>:<wr>:<alloc>:<wr_alloc>,<mshr>:<N>:<merge>,<mq>} 
-gpgpu_cache:dl1     S:1:128:512,L:L:s:N:L,A:256:8,16:0,32 # per-shader L1 data cache config  {<nsets>:<bsize>:<assoc>,<rep>:<wr>:<alloc>:<wr_alloc>,<mshr>:<N>:<merge>,<mq> | none}
-gpgpu_l1_banks                         4 # The number of L1 cache banks
-gpgpu_l1_banks_byte_interleaving                   32 # l1 banks byte interleaving granularity
-gpgpu_l1_banks_hashing_function                    0 # l1 banks hashing function
-gpgpu_l1_latency                      20 # L1 Hit Latency
-gpgpu_smem_latency                    20 # smem Latency
-gpgpu_cache:dl1PrefL1                 none # per-shader L1 data cache config  {<nsets>:<bsize>:<assoc>,<rep>:<wr>:<alloc>:<wr_alloc>,<mshr>:<N>:<merge>,<mq> | none}
-gpgpu_cache:dl1PrefShared                 none # per-shader L1 data cache config  {<nsets>:<bsize>:<assoc>,<rep>:<wr>:<alloc>:<wr_alloc>,<mshr>:<N>:<merge>,<mq> | none}
-gpgpu_gmem_skip_L1D                    0 # global memory access skip L1D cache (implements -Xptxas -dlcm=cg, default=no skip)
-gpgpu_perfect_mem                      0 # enable perfect memory mode (no cache miss)
-n_regfile_gating_group                    4 # group of lanes that should be read/written together)
-gpgpu_clock_gated_reg_file                    0 # enable clock gated reg file for power calculations
-gpgpu_clock_gated_lanes                    0 # enable clock gated lanes for power calculations
-gpgpu_shader_registers                32768 # Number of registers per shader core. Limits number of concurrent CTAs. (default 8192)
-gpgpu_registers_per_block                32768 # Maximum number of registers per CTA. (default 8192)
-gpgpu_ignore_resources_limitation                    0 # gpgpu_ignore_resources_limitation (default 0)
-gpgpu_shader_cta                      16 # Maximum number of concurrent CTAs in shader (default 8)
-gpgpu_num_cta_barriers                   16 # Maximum number of named barriers per CTA (default 16)
-gpgpu_n_clusters                       2 # number of processing clusters
-gpgpu_n_cores_per_cluster                    1 # number of simd cores per cluster
-gpgpu_n_cluster_ejection_buffer_size                   32 # number of packets in ejection buffer
-gpgpu_n_ldst_response_buffer_size                    2 # number of response packets in ld/st unit ejection buffer
-gpgpu_shmem_per_block                65536 # Size of shared memory per thread block or CTA (default 48kB)
-gpgpu_shmem_size                   65536 # Size of shared memory per shader core (default 16kB)
-gpgpu_adaptive_cache_config                    0 # adaptive_cache_config
-gpgpu_shmem_sizeDefault                65536 # Size of shared memory per shader core (default 16kB)
-gpgpu_shmem_size_PrefL1                16384 # Size of shared memory per shader core (default 16kB)
-gpgpu_shmem_size_PrefShared                16384 # Size of shared memory per shader core (default 16kB)
-gpgpu_shmem_num_banks                   32 # Number of banks in the shared memory in each shader core (default 16)
-gpgpu_shmem_limited_broadcast                    0 # Limit shared memory to do one broadcast per cycle (default on)
-gpgpu_shmem_warp_parts                    1 # Number of portions a warp is divided into for shared memory bank conflict check 
-gpgpu_mem_unit_ports                    1 # The number of memory transactions allowed per core cycle
-gpgpu_shmem_warp_parts                    1 # Number of portions a warp is divided into for shared memory bank conflict check 
-gpgpu_warpdistro_shader                   -1 # Specify which shader core to collect the warp size distribution from
-gpgpu_warp_issue_shader                    0 # Specify which shader core to collect the warp issue distribution from
-gpgpu_local_mem_map                    1 # Mapping from local memory space address to simulated GPU physical address space (default = enabled)
-gpgpu_num_reg_banks                   16 # Number of register banks (default = 8)
-gpgpu_reg_bank_use_warp_id                    0 # Use warp ID in mapping registers to banks (default = off)
-gpgpu_sub_core_model                    1 # Sub Core Volta/Pascal model (default = off)
-gpgpu_enable_specialized_operand_collector                    0 # enable_specialized_operand_collector
-gpgpu_operand_collector_num_units_sp                    4 # number of collector units (default = 4)
-gpgpu_operand_collector_num_units_dp                    0 # number of collector units (default = 0)
-gpgpu_operand_collector_num_units_sfu                    4 # number of collector units (default = 4)
-gpgpu_operand_collector_num_units_int                    0 # number of collector units (default = 0)
-gpgpu_operand_collector_num_units_tensor_core                    4 # number of collector units (default = 4)
-gpgpu_operand_collector_num_units_mem                    2 # number of collector units (default = 2)
-gpgpu_operand_collector_num_units_gen                    8 # number of collector units (default = 0)
-gpgpu_operand_collector_num_in_ports_sp                    1 # number of collector unit in ports (default = 1)
-gpgpu_operand_collector_num_in_ports_dp                    0 # number of collector unit in ports (default = 0)
-gpgpu_operand_collector_num_in_ports_sfu                    1 # number of collector unit in ports (default = 1)
-gpgpu_operand_collector_num_in_ports_int                    0 # number of collector unit in ports (default = 0)
-gpgpu_operand_collector_num_in_ports_tensor_core                    1 # number of collector unit in ports (default = 1)
-gpgpu_operand_collector_num_in_ports_mem                    1 # number of collector unit in ports (default = 1)
-gpgpu_operand_collector_num_in_ports_gen                    8 # number of collector unit in ports (default = 0)
-gpgpu_operand_collector_num_out_ports_sp                    1 # number of collector unit in ports (default = 1)
-gpgpu_operand_collector_num_out_ports_dp                    0 # number of collector unit in ports (default = 0)
-gpgpu_operand_collector_num_out_ports_sfu                    1 # number of collector unit in ports (default = 1)
-gpgpu_operand_collector_num_out_ports_int                    0 # number of collector unit in ports (default = 0)
-gpgpu_operand_collector_num_out_ports_tensor_core                    1 # number of collector unit in ports (default = 1)
-gpgpu_operand_collector_num_out_ports_mem                    1 # number of collector unit in ports (default = 1)
-gpgpu_operand_collector_num_out_ports_gen                    8 # number of collector unit in ports (default = 0)
-gpgpu_coalesce_arch                   75 # Coalescing arch (GT200 = 13, Fermi = 20)
-gpgpu_num_sched_per_core                    4 # Number of warp schedulers per core
-gpgpu_max_insn_issue_per_warp                    1 # Max number of instructions that can be issued per warp in one cycle by scheduler (either 1 or 2)
-gpgpu_dual_issue_diff_exec_units                    1 # should dual issue use two different execution unit resources (Default = 1)
-gpgpu_simt_core_sim_order                    1 # Select the simulation order of cores in a cluster (0=Fix, 1=Round-Robin)
-gpgpu_pipeline_widths 4,0,4,4,4,4,0,4,4,4,8,4,4,4,4 # Pipeline widths ID_OC_SP,ID_OC_DP,ID_OC_INT,ID_OC_SFU,ID_OC_MEM,OC_EX_SP,OC_EX_DP,OC_EX_INT,OC_EX_SFU,OC_EX_MEM,EX_WB,ID_OC_TENSOR_CORE,OC_EX_TENSOR_CORE,ID_OC_RT,OC_EX_RT
-gpgpu_tensor_core_avail                    1 # Tensor Core Available (default=0)
-gpgpu_num_sp_units                     4 # Number of SP units (default=1)
-gpgpu_num_dp_units                     0 # Number of DP units (default=0)
-gpgpu_num_int_units                    4 # Number of INT units (default=0)
-gpgpu_num_sfu_units                    4 # Number of SF units (default=1)
-gpgpu_num_tensor_core_units                    4 # Number of tensor_core units (default=1)
-gpgpu_num_rt_core_units                    1 # Number of rt core units (default=1)
-gpgpu_num_mem_units                    1 # Number if ldst units (default=1) WARNING: not hooked up to anything
-gpgpu_scheduler                      gto # Scheduler configuration: < lrr | gto | two_level_active > If two_level_active:<num_active_warps>:<inner_prioritization>:<outer_prioritization>For complete list of prioritization values see shader.h enum scheduler_prioritization_typeDefault: gto
-gpgpu_concurrent_kernel_sm                    0 # Support concurrent kernels on a SM (default = disabled)
-gpgpu_perfect_inst_const_cache                    1 # perfect inst and const cache mode, so all inst and const hits in the cache(default = disabled)
-gpgpu_inst_fetch_throughput                    4 # the number of fetched intruction per warp each cycle
-gpgpu_reg_file_port_throughput                    2 # the number ports of the register file
-specialized_unit_1         0,4,4,4,4,BRA # specialized unit config {<enabled>,<num_units>:<latency>:<initiation>,<ID_OC_SPEC>:<OC_EX_SPEC>,<NAME>}
-specialized_unit_2         0,4,4,4,4,BRA # specialized unit config {<enabled>,<num_units>:<latency>:<initiation>,<ID_OC_SPEC>:<OC_EX_SPEC>,<NAME>}
-specialized_unit_3         0,4,4,4,4,BRA # specialized unit config {<enabled>,<num_units>:<latency>:<initiation>,<ID_OC_SPEC>:<OC_EX_SPEC>,<NAME>}
-specialized_unit_4         0,4,4,4,4,BRA # specialized unit config {<enabled>,<num_units>:<latency>:<initiation>,<ID_OC_SPEC>:<OC_EX_SPEC>,<NAME>}
-specialized_unit_5         0,4,4,4,4,BRA # specialized unit config {<enabled>,<num_units>:<latency>:<initiation>,<ID_OC_SPEC>:<OC_EX_SPEC>,<NAME>}
-specialized_unit_6         0,4,4,4,4,BRA # specialized unit config {<enabled>,<num_units>:<latency>:<initiation>,<ID_OC_SPEC>:<OC_EX_SPEC>,<NAME>}
-specialized_unit_7         0,4,4,4,4,BRA # specialized unit config {<enabled>,<num_units>:<latency>:<initiation>,<ID_OC_SPEC>:<OC_EX_SPEC>,<NAME>}
-specialized_unit_8         0,4,4,4,4,BRA # specialized unit config {<enabled>,<num_units>:<latency>:<initiation>,<ID_OC_SPEC>:<OC_EX_SPEC>,<NAME>}
-gpgpu_perf_sim_memcpy                    1 # Fill the L2 cache on memcpy
-gpgpu_simple_dram_model                    0 # simple_dram_model with fixed latency and BW
-gpgpu_dram_scheduler                    1 # 0 = fifo, 1 = FR-FCFS (defaul)
-gpgpu_dram_partition_queues          64:64:64:64 # i2$:$2d:d2$:$2i
-l2_ideal                               0 # Use a ideal L2 cache that always hit
-gpgpu_cache:dl2     S:64:128:16,L:B:m:L:P,A:192:4,32:0,32 # unified banked L2 data cache config  {<nsets>:<bsize>:<assoc>,<rep>:<wr>:<alloc>:<wr_alloc>,<mshr>:<N>:<merge>,<mq>}
-gpgpu_cache:dl2_texture_only                    0 # L2 cache used for texture only
-gpgpu_n_mem                            1 # number of memory modules (e.g. memory controllers) in gpu
-gpgpu_n_sub_partition_per_mchannel                    1 # number of memory subpartition in each memory module
-gpgpu_n_mem_per_ctrlr                    1 # number of memory chips per memory controller
-gpgpu_memlatency_stat                   14 # track and display latency statistics 0x2 enables MC, 0x4 enables queue logs
-gpgpu_frfcfs_dram_sched_queue_size                   64 # 0 = unlimited (default); # entries per chip
-gpgpu_dram_return_queue_size                  192 # 0 = unlimited (default); # entries per chip
-gpgpu_dram_buswidth                    2 # default = 4 bytes (8 bytes per cycle at DDR)
-gpgpu_dram_burst_length                    8 # Burst length of each DRAM request (default = 4 data bus cycle)
-dram_data_command_freq_ratio                    2 # Frequency ratio between DRAM data bus and command bus (default = 2 times, i.e. DDR)
-gpgpu_dram_timing_opt nbk=16:CCD=4:RRD=10:RCD=20:RAS=50:RP=20:RC=62: CL=20:WL=8:CDLR=9:WR=20:nbkgrp=4:CCDL=4:RTPL=4 # DRAM timing parameters = {nbk:tCCD:tRRD:tRCD:tRAS:tRP:tRC:CL:WL:tCDLR:tWR:nbkgrp:tCCDL:tRTPL}
-gpgpu_l2_rop_latency                  160 # ROP queue latency (default 85)
-dram_latency                         100 # DRAM latency (default 30)
-dram_dual_bus_interface                    0 # dual_bus_interface (default = 0) 
-dram_bnk_indexing_policy                    0 # dram_bnk_indexing_policy (0 = normal indexing, 1 = Xoring with the higher bits) (Default = 0)
-dram_bnkgrp_indexing_policy                    1 # dram_bnkgrp_indexing_policy (0 = take higher bits, 1 = take lower bits) (Default = 0)
-dram_seperate_write_queue_enable                    0 # Seperate_Write_Queue_Enable
-dram_write_queue_size             32:28:16 # Write_Queue_Size
-dram_elimnate_rw_turnaround                    0 # elimnate_rw_turnaround i.e set tWTR and tRTW = 0
-icnt_flit_size                        40 # icnt_flit_size
-gpgpu_mem_addr_mapping dramid@8;00000000.00000000.00000000.00000000.0000RRRR.RRRRRRRR.RBBBCCCC.BCCSSSSS # mapping memory address to dram model {dramid@<start bit>;<memory address map>}
-gpgpu_mem_addr_test                    0 # run sweep test to check address mapping for aliased address
-gpgpu_mem_address_mask                    1 # 0 = old addressing mask, 1 = new addressing mask, 2 = new add. mask + flipped bank sel and chip sel bits
-gpgpu_memory_partition_indexing                    0 # 0 = no indexing, 1 = bitwise xoring, 2 = IPoly, 3 = custom indexing
-gpuwattch_xml_file         gpuwattch.xml # GPUWattch XML file
-power_simulation_enabled                    0 # Turn on power simulator (1=On, 0=Off)
-power_per_cycle_dump                    0 # Dump detailed power output each cycle
-power_trace_enabled                    1 # produce a file for the power trace (1=On, 0=Off)
-power_trace_zlevel                     6 # Compression level of the power trace output log (0=no comp, 9=highest)
-steady_power_levels_enabled                    1 # produce a file for the steady power levels (1=On, 0=Off)
-steady_state_definition                  8:4 # allowed deviation:number of samples
-gpgpu_intermittent_stats                    0 # print intermittent stats
-gpgpu_intermittent_stats_freq                10000 # intermittent stats frequency
-gpgpu_max_cycle                        0 # terminates gpu simulation early (0 = no limit)
-gpgpu_max_insn                         0 # terminates gpu simulation early (0 = no limit)
-gpgpu_max_cta                          0 # terminates gpu simulation early (0 = no limit)
-gpgpu_max_completed_cta                    0 # terminates gpu simulation early (0 = no limit)
-gpgpu_runtime_stat                   500 # display runtime statistics such as dram utilization {<freq>:<flag>}
-liveness_message_freq                    1 # Minimum number of seconds between simulation liveness messages (0 = always print)
-gpgpu_compute_capability_major                    7 # Major compute capability version number
-gpgpu_compute_capability_minor                    5 # Minor compute capability version number
-gpgpu_flush_l1_cache                    1 # Flush L1 cache at the end of each kernel call
-gpgpu_flush_l2_cache                    0 # Flush L2 cache at the end of each kernel call
-gpgpu_deadlock_detect                    1 # Stop the simulation at deadlock (1=on (default), 0=off)
-gpgpu_ptx_instruction_classification                    1 # if enabled will classify ptx instruction types per kernel (Max 255 kernels now)
-gpgpu_ptx_sim_mode                     0 # Select between Performance (default) or Functional simulation (1)
-gpgpu_clock_domains 1365.0:1365.0:1365.0:3500.0 # Clock Domain Frequencies in MhZ {<Core Clock>:<ICNT Clock>:<L2 Clock>:<DRAM Clock>}
-gpgpu_max_concurrent_kernel                    8 # maximum kernels that can run concurrently on GPU
-gpgpu_cflog_interval                    0 # Interval between each snapshot in control flow logger
-visualizer_enabled                     1 # Turn on visualizer output (1=On, 0=Off)
-visualizer_outputfile     Characterization # Specifies the output log file for visualizer
-visualizer_zlevel                      6 # Compression level of the visualizer output log (0=no comp, 9=highest)
-gpgpu_stack_size_limit                 1024 # GPU thread stack size
-gpgpu_heap_size_limit              8388608 # GPU malloc heap size 
-gpgpu_runtime_sync_depth_limit                    2 # GPU device runtime synchronize depth
-gpgpu_runtime_pending_launch_count_limit                 2048 # GPU device runtime pending launch count
-trace_enabled                          0 # Turn on traces
-trace_components                    none # comma seperated list of traces to enable. Complete list found in trace_streams.tup. Default none
-trace_sampling_core                    0 # The core which is printed using CORE_DPRINTF. Default 0
-trace_sampling_memory_partition                   -1 # The memory partition which is printed using MEMPART_DPRINTF. Default -1 (i.e. all)
-enable_ptx_file_line_stats                    1 # Turn on PTX source line statistic profiling. (1 = On)
-ptx_line_stats_filename gpgpu_inst_stats.txt # Output file for PTX source line statistics.
-gpgpu_kernel_launch_latency                 5000 # Kernel launch latency in cycles. Default: 0
-gpgpu_cdp_enabled                      0 # Turn on CDP
-gpgpu_TB_launch_latency                    0 # thread block launch latency in cycles. Default: 0
-gpgpu_max_simulated_rt_kernels                    1 # Max simulated kernels, used to limit how many frames we render. Default: 0
-selected_coordinates /home/ggc/ray_tracing/Predictor/data/coordinates//chunk_2_1.coords # Filepath of the coordinates list to trace
Streaming cache with 8192 mshr
GPGPU-Sim: Ray Coherence Engine Settings:
	Enabled: No
	Max cycles: 100
	Max packets: 16
	Sorting hash: grid-spherical
	Bits: 3-2
DRAM Timing Options:
nbk                                    16 # number of banks
CCD                                     4 # column to column delay
RRD                                    10 # minimal delay between activation of rows in different banks
RCD                                    20 # row to column delay
RAS                                    50 # time needed to activate row
RP                                     20 # time needed to precharge (deactivate) row
RC                                     62 # row cycle time
CDLR                                    9 # switching from write to read (changes tWTR)
WR                                     20 # last data-in to row precharge
CL                                     20 # CAS latency
WL                                      8 # Write latency
nbkgrp                                  4 # number of bank groups
CCDL                                    4 # column to column delay between accesses to different bank groups
RTPL                                    4 # read to precharge delay between accesses to different bank groups
Total number of memory sub partition = 1
addr_dec_mask[CHIP]  = 0000000000000000 	high:64 low:0
addr_dec_mask[BK]    = 0000000000007080 	high:15 low:7
addr_dec_mask[ROW]   = 000000000fff8000 	high:28 low:15
addr_dec_mask[COL]   = 0000000000000f7f 	high:12 low:0
addr_dec_mask[BURST] = 000000000000001f 	high:5 low:0
sub_partition_id_mask = 0000000000000000
GPGPU-Sim uArch: clock freqs: 1365000000.000000:1365000000.000000:1365000000.000000:3500000000.000000
GPGPU-Sim uArch: clock periods: 0.00000000073260073260:0.00000000073260073260:0.00000000073260073260:0.00000000028571428571
*** Initializing Memory Statistics ***
GPGPU-Sim uArch: performance model initialization complete.
gpgpusim: binding gpgpusim buffer 0xc0000000 (size 9835452) to vulkan buffer 0x7f9f5d4be000
LVP: gpgpusim buffer size 9835452 allocated at 0xc0000000
RTV: Bind buffer memory for vkBuffer 0x556b94d64358
LVP: vkBuffer size 9835452 created at 0x556b96e2afb8
RTV: New vkBuffer created at 0x556b96e2afb8
LLVM: llvmpipe_resource_bind_backing: pipe_screen 0x556b949076f0; pipe_resource 0x556b9980b3f0; llvmpipe_resource 0x556b9980b3f0; pipe_memory_allocation 0x7f9f5c35a000;
LVP: Binding lvp_buffer 0x556b9980b370: buffer->bo: 0x556b9980b3f0; buffer->pmem: 0x7f9f5c35a000; memory-offset: 0;
gpgpusim: binding gpgpusim buffer 0xc0961400 (size 9835452) to vulkan buffer 0x7f9f5c35a000
LVP: gpgpusim buffer size 9835452 allocated at 0xc0961400
RTV: Bind buffer memory for vkBuffer 0x556b96e2afb8
LVP: Finding mapped memory for mem 0x556b9980b600: mem->pmem 0x7f9f5c35a000 
LVP: Identified at 0x7f9f5c35a000
LVP: Command Buffer:
	VK_CMD_COPY_BUFFER2
RTV: Creating device buffer Indices of size 5984256
LVP: vkBuffer size 5984256 created at 0x556b96e2afb8
RTV: New vkBuffer created at 0x556b96e2afb8
LLVM: llvmpipe_resource_bind_backing: pipe_screen 0x556b949076f0; pipe_resource 0x556b9bd91f90; llvmpipe_resource 0x556b9bd91f90; pipe_memory_allocation 0x556b9bd93000;
LVP: Binding lvp_buffer 0x556b9980b600: buffer->bo: 0x556b9bd91f90; buffer->pmem: 0x556b9bd93000; memory-offset: 0;
gpgpusim: binding gpgpusim buffer 0xc12c2800 (size 5984256) to vulkan buffer 0x556b9bd93000
LVP: gpgpusim buffer size 5984256 allocated at 0xc12c2800
RTV: Bind buffer memory for vkBuffer 0x556b96e2afb8
LVP: vkBuffer size 5984256 created at 0x556b9bd905a8
RTV: New vkBuffer created at 0x556b9bd905a8
LLVM: llvmpipe_resource_bind_backing: pipe_screen 0x556b949076f0; pipe_resource 0x556b9da1b320; llvmpipe_resource 0x556b9da1b320; pipe_memory_allocation 0x556b9da1c000;
LVP: Binding lvp_buffer 0x556b9bd91e60: buffer->bo: 0x556b9da1b320; buffer->pmem: 0x556b9da1c000; memory-offset: 0;
gpgpusim: binding gpgpusim buffer 0xc1877800 (size 5984256) to vulkan buffer 0x556b9da1c000
LVP: gpgpusim buffer size 5984256 allocated at 0xc1877800
RTV: Bind buffer memory for vkBuffer 0x556b9bd905a8
LVP: Finding mapped memory for mem 0x556b9da1b530: mem->pmem 0x556b9da1c000 
LVP: Identified at 0x556b9da1c000
LVP: Command Buffer:
	VK_CMD_COPY_BUFFER2
RTV: Creating device buffer Materials of size 15584
LVP: vkBuffer size 15584 created at 0x556b9bd905a8
RTV: New vkBuffer created at 0x556b9bd905a8
LLVM: llvmpipe_resource_bind_backing: pipe_screen 0x556b949076f0; pipe_resource 0x556b9da1c000; llvmpipe_resource 0x556b9da1c000; pipe_memory_allocation 0x556b9da1d000;
LVP: Binding lvp_buffer 0x556b9da1b530: buffer->bo: 0x556b9da1c000; buffer->pmem: 0x556b9da1d000; memory-offset: 0;
gpgpusim: binding gpgpusim buffer 0xc1e2c800 (size 15584) to vulkan buffer 0x556b9da1d000
LVP: gpgpusim buffer size 15584 allocated at 0xc1e2c800
RTV: Bind buffer memory for vkBuffer 0x556b9bd905a8
LVP: vkBuffer size 15584 created at 0x556b9f6a45d8
RTV: New vkBuffer created at 0x556b9f6a45d8
LLVM: llvmpipe_resource_bind_backing: pipe_screen 0x556b949076f0; pipe_resource 0x556b9da2f470; llvmpipe_resource 0x556b9da2f470; pipe_memory_allocation 0x556b9da30000;
LVP: Binding lvp_buffer 0x556b9f6a4700: buffer->bo: 0x556b9da2f470; buffer->pmem: 0x556b9da30000; memory-offset: 0;
gpgpusim: binding gpgpusim buffer 0xc1e30500 (size 15584) to vulkan buffer 0x556b9da30000
LVP: gpgpusim buffer size 15584 allocated at 0xc1e30500
RTV: Bind buffer memory for vkBuffer 0x556b9f6a45d8
LVP: Finding mapped memory for mem 0x556b9da2f680: mem->pmem 0x556b9da30000 
LVP: Identified at 0x556b9da30000
LVP: Command Buffer:
	VK_CMD_COPY_BUFFER2
RTV: Creating device buffer Offsets of size 3896
LVP: vkBuffer size 3896 created at 0x556b9f6a45d8
RTV: New vkBuffer created at 0x556b9f6a45d8
LLVM: llvmpipe_resource_bind_backing: pipe_screen 0x556b949076f0; pipe_resource 0x556b9da30000; llvmpipe_resource 0x556b9da30000; pipe_memory_allocation 0x556b9da31000;
LVP: Binding lvp_buffer 0x556b9da2f680: buffer->bo: 0x556b9da30000; buffer->pmem: 0x556b9da31000; memory-offset: 0;
gpgpusim: binding gpgpusim buffer 0xc1e34200 (size 3896) to vulkan buffer 0x556b9da31000
LVP: gpgpusim buffer size 3896 allocated at 0xc1e34200
RTV: Bind buffer memory for vkBuffer 0x556b9f6a45d8
LVP: vkBuffer size 3896 created at 0x556b9da42798
RTV: New vkBuffer created at 0x556b9da42798
LLVM: llvmpipe_resource_bind_backing: pipe_screen 0x556b949076f0; pipe_resource 0x556b9da43d70; llvmpipe_resource 0x556b9da43d70; pipe_memory_allocation 0x556b9da44000;
LVP: Binding lvp_buffer 0x556b9da428c0: buffer->bo: 0x556b9da43d70; buffer->pmem: 0x556b9da44000; memory-offset: 0;
gpgpusim: binding gpgpusim buffer 0xc1e35200 (size 3896) to vulkan buffer 0x556b9da44000
LVP: gpgpusim buffer size 3896 allocated at 0xc1e35200
RTV: Bind buffer memory for vkBuffer 0x556b9da42798
LVP: Finding mapped memory for mem 0x556b9da43f80: mem->pmem 0x556b9da44000 
LVP: Identified at 0x556b9da44000
LVP: Command Buffer:
	VK_CMD_COPY_BUFFER2
RTV: Creating device buffer AABBs of size 11688
LVP: vkBuffer size 11688 created at 0x556b9da42798
RTV: New vkBuffer created at 0x556b9da42798
LLVM: llvmpipe_resource_bind_backing: pipe_screen 0x556b949076f0; pipe_resource 0x556b9da44000; llvmpipe_resource 0x556b9da44000; pipe_memory_allocation 0x556b9da49000;
LVP: Binding lvp_buffer 0x556b9da43f80: buffer->bo: 0x556b9da44000; buffer->pmem: 0x556b9da49000; memory-offset: 0;
gpgpusim: binding gpgpusim buffer 0xc1e36200 (size 11688) to vulkan buffer 0x556b9da49000
LVP: gpgpusim buffer size 11688 allocated at 0xc1e36200
RTV: Bind buffer memory for vkBuffer 0x556b9da42798
LVP: vkBuffer size 11688 created at 0x556b9da48c68
RTV: New vkBuffer created at 0x556b9da48c68
LLVM: llvmpipe_resource_bind_backing: pipe_screen 0x556b949076f0; pipe_resource 0x556b9da566f0; llvmpipe_resource 0x556b9da566f0; pipe_memory_allocation 0x556b9da57000;
LVP: Binding lvp_buffer 0x556b9da48d90: buffer->bo: 0x556b9da566f0; buffer->pmem: 0x556b9da57000; memory-offset: 0;
gpgpusim: binding gpgpusim buffer 0xc1e39000 (size 11688) to vulkan buffer 0x556b9da57000
LVP: gpgpusim buffer size 11688 allocated at 0xc1e39000
RTV: Bind buffer memory for vkBuffer 0x556b9da48c68
LVP: Finding mapped memory for mem 0x556b9da56900: mem->pmem 0x556b9da57000 
LVP: Identified at 0x556b9da57000
LVP: Command Buffer:
	VK_CMD_COPY_BUFFER2
RTV: Creating device buffer Procedurals of size 7792
LVP: vkBuffer size 7792 created at 0x556b9da48c68
RTV: New vkBuffer created at 0x556b9da48c68
LLVM: llvmpipe_resource_bind_backing: pipe_screen 0x556b949076f0; pipe_resource 0x556b9da57000; llvmpipe_resource 0x556b9da57000; pipe_memory_allocation 0x556b9da66000;
LVP: Binding lvp_buffer 0x556b9da56900: buffer->bo: 0x556b9da57000; buffer->pmem: 0x556b9da66000; memory-offset: 0;
gpgpusim: binding gpgpusim buffer 0xc1e3be00 (size 7792) to vulkan buffer 0x556b9da66000
LVP: gpgpusim buffer size 7792 allocated at 0xc1e3be00
RTV: Bind buffer memory for vkBuffer 0x556b9da48c68
LVP: vkBuffer size 7792 created at 0x556b9da64e18
RTV: New vkBuffer created at 0x556b9da64e18
LLVM: llvmpipe_resource_bind_backing: pipe_screen 0x556b949076f0; pipe_resource 0x556b9da6bd60; llvmpipe_resource 0x556b9da6bd60; pipe_memory_allocation 0x556b9da6d000;
LVP: Binding lvp_buffer 0x556b9da64f40: buffer->bo: 0x556b9da6bd60; buffer->pmem: 0x556b9da6d000; memory-offset: 0;
gpgpusim: binding gpgpusim buffer 0xc1e3dd00 (size 7792) to vulkan buffer 0x556b9da6d000
LVP: gpgpusim buffer size 7792 allocated at 0xc1e3dd00
RTV: Bind buffer memory for vkBuffer 0x556b9da64e18
LVP: Finding mapped memory for mem 0x556b9da6bf70: mem->pmem 0x556b9da6d000 
LVP: Identified at 0x556b9da6d000
LVP: Command Buffer:
	VK_CMD_COPY_BUFFER2
RTV: Creating device buffer CubeAABBs of size 11688
LVP: vkBuffer size 11688 created at 0x556b9da64e18
RTV: New vkBuffer created at 0x556b9da64e18
LLVM: llvmpipe_resource_bind_backing: pipe_screen 0x556b949076f0; pipe_resource 0x556b9da6d000; llvmpipe_resource 0x556b9da6d000; pipe_memory_allocation 0x556b9da76000;
LVP: Binding lvp_buffer 0x556b9da6bf70: buffer->bo: 0x556b9da6d000; buffer->pmem: 0x556b9da76000; memory-offset: 0;
gpgpusim: binding gpgpusim buffer 0xc1e3fc00 (size 11688) to vulkan buffer 0x556b9da76000
LVP: gpgpusim buffer size 11688 allocated at 0xc1e3fc00
RTV: Bind buffer memory for vkBuffer 0x556b9da64e18
LVP: vkBuffer size 11688 created at 0x556b9da75868
RTV: New vkBuffer created at 0x556b9da75868
LLVM: llvmpipe_resource_bind_backing: pipe_screen 0x556b949076f0; pipe_resource 0x556b9da82230; llvmpipe_resource 0x556b9da82230; pipe_memory_allocation 0x556b9da83000;
LVP: Binding lvp_buffer 0x556b9da75990: buffer->bo: 0x556b9da82230; buffer->pmem: 0x556b9da83000; memory-offset: 0;
gpgpusim: binding gpgpusim buffer 0xc1e42a00 (size 11688) to vulkan buffer 0x556b9da83000
LVP: gpgpusim buffer size 11688 allocated at 0xc1e42a00
RTV: Bind buffer memory for vkBuffer 0x556b9da75868
LVP: Finding mapped memory for mem 0x556b9da82440: mem->pmem 0x556b9da83000 
LVP: Identified at 0x556b9da83000
LVP: Command Buffer:
	VK_CMD_COPY_BUFFER2
RTV: Creating device buffer ProceduralCubes of size 7792
LVP: vkBuffer size 7792 created at 0x556b9da75868
RTV: New vkBuffer created at 0x556b9da75868
LLVM: llvmpipe_resource_bind_backing: pipe_screen 0x556b949076f0; pipe_resource 0x556b9da83000; llvmpipe_resource 0x556b9da83000; pipe_memory_allocation 0x556b9da91000;
LVP: Binding lvp_buffer 0x556b9da82440: buffer->bo: 0x556b9da83000; buffer->pmem: 0x556b9da91000; memory-offset: 0;
gpgpusim: binding gpgpusim buffer 0xc1e45800 (size 7792) to vulkan buffer 0x556b9da91000
LVP: gpgpusim buffer size 7792 allocated at 0xc1e45800
RTV: Bind buffer memory for vkBuffer 0x556b9da75868
LVP: vkBuffer size 7792 created at 0x556b9da90958
RTV: New vkBuffer created at 0x556b9da90958
LLVM: llvmpipe_resource_bind_backing: pipe_screen 0x556b949076f0; pipe_resource 0x556b9da97800; llvmpipe_resource 0x556b9da97800; pipe_memory_allocation 0x556b9da98000;
LVP: Binding lvp_buffer 0x556b9da90a80: buffer->bo: 0x556b9da97800; buffer->pmem: 0x556b9da98000; memory-offset: 0;
gpgpusim: binding gpgpusim buffer 0xc1e47700 (size 7792) to vulkan buffer 0x556b9da98000
LVP: gpgpusim buffer size 7792 allocated at 0xc1e47700
RTV: Bind buffer memory for vkBuffer 0x556b9da90958
LVP: Finding mapped memory for mem 0x556b9da97a10: mem->pmem 0x556b9da98000 
LVP: Identified at 0x556b9da98000
LVP: Command Buffer:
	VK_CMD_COPY_BUFFER2
RTV: Creating device buffer CylinderAABBs of size 11688
LVP: vkBuffer size 11688 created at 0x556b9da90958
RTV: New vkBuffer created at 0x556b9da90958
LLVM: llvmpipe_resource_bind_backing: pipe_screen 0x556b949076f0; pipe_resource 0x556b9da97800; llvmpipe_resource 0x556b9da97800; pipe_memory_allocation 0x556b9daa2000;
LVP: Binding lvp_buffer 0x556b9da97a10: buffer->bo: 0x556b9da97800; buffer->pmem: 0x556b9daa2000; memory-offset: 0;
gpgpusim: binding gpgpusim buffer 0xc1e49600 (size 11688) to vulkan buffer 0x556b9daa2000
LVP: gpgpusim buffer size 11688 allocated at 0xc1e49600
RTV: Bind buffer memory for vkBuffer 0x556b9da90958
LVP: vkBuffer size 11688 created at 0x556b9daa1308
RTV: New vkBuffer created at 0x556b9daa1308
LLVM: llvmpipe_resource_bind_backing: pipe_screen 0x556b949076f0; pipe_resource 0x556b9daad9b0; llvmpipe_resource 0x556b9daad9b0; pipe_memory_allocation 0x556b9daae000;
LVP: Binding lvp_buffer 0x556b9daa1430: buffer->bo: 0x556b9daad9b0; buffer->pmem: 0x556b9daae000; memory-offset: 0;
gpgpusim: binding gpgpusim buffer 0xc1e4c400 (size 11688) to vulkan buffer 0x556b9daae000
LVP: gpgpusim buffer size 11688 allocated at 0xc1e4c400
RTV: Bind buffer memory for vkBuffer 0x556b9daa1308
LVP: Finding mapped memory for mem 0x556b9daadbc0: mem->pmem 0x556b9daae000 
LVP: Identified at 0x556b9daae000
LVP: Command Buffer:
	VK_CMD_COPY_BUFFER2
RTV: Creating device buffer ProceduralCylinders of size 7792
LVP: vkBuffer size 7792 created at 0x556b9daa1308
RTV: New vkBuffer created at 0x556b9daa1308
LLVM: llvmpipe_resource_bind_backing: pipe_screen 0x556b949076f0; pipe_resource 0x556b9daad9b0; llvmpipe_resource 0x556b9daad9b0; pipe_memory_allocation 0x556b9dabd000;
LVP: Binding lvp_buffer 0x556b9daadbc0: buffer->bo: 0x556b9daad9b0; buffer->pmem: 0x556b9dabd000; memory-offset: 0;
gpgpusim: binding gpgpusim buffer 0xc1e4f200 (size 7792) to vulkan buffer 0x556b9dabd000
LVP: gpgpusim buffer size 7792 allocated at 0xc1e4f200
RTV: Bind buffer memory for vkBuffer 0x556b9daa1308
LVP: vkBuffer size 7792 created at 0x556b9dabc498
RTV: New vkBuffer created at 0x556b9dabc498
LLVM: llvmpipe_resource_bind_backing: pipe_screen 0x556b949076f0; pipe_resource 0x556b9dac3000; llvmpipe_resource 0x556b9dac3000; pipe_memory_allocation 0x556b9dac4000;
LVP: Binding lvp_buffer 0x556b9dabc5c0: buffer->bo: 0x556b9dac3000; buffer->pmem: 0x556b9dac4000; memory-offset: 0;
gpgpusim: binding gpgpusim buffer 0xc1e51100 (size 7792) to vulkan buffer 0x556b9dac4000
LVP: gpgpusim buffer size 7792 allocated at 0xc1e51100
RTV: Bind buffer memory for vkBuffer 0x556b9dabc498
LVP: Finding mapped memory for mem 0x556b9dac3210: mem->pmem 0x556b9dac4000 
LVP: Identified at 0x556b9dac4000
LVP: Command Buffer:
	VK_CMD_COPY_BUFFER2
LVP: vkBuffer size 4 created at 0x556b9da1cfd8
RTV: New vkBuffer created at 0x556b9da1cfd8
LLVM: llvmpipe_resource_bind_backing: pipe_screen 0x556b949076f0; pipe_resource 0x556b9dac3000; llvmpipe_resource 0x556b9dac3000; pipe_memory_allocation 0x556b9dac4000;
LVP: Binding lvp_buffer 0x556b9dac3210: buffer->bo: 0x556b9dac3000; buffer->pmem: 0x556b9dac4000; memory-offset: 0;
gpgpusim: binding gpgpusim buffer 0xc1e53000 (size 4) to vulkan buffer 0x556b9dac4000
LVP: gpgpusim buffer size 4 allocated at 0xc1e53000
RTV: Bind buffer memory for vkBuffer 0x556b9da1cfd8
LVP: Finding mapped memory for mem 0x556b9dabc5c0: mem->pmem 0x556b9dac4000 
LVP: Identified at 0x556b9dac4000
LVP: Image created at 0x556b9dac3fe8
RTV: Creating image at 0x556b9dac4020
LLVM: llvmpipe_resource_bind_backing: pipe_screen 0x556b949076f0; pipe_resource 0x556b9dac40e0; llvmpipe_resource 0x556b9dac40e0; pipe_memory_allocation 0x556b9dac5000;
gpgpusim: binding gpgpusim buffer 0xc1e53100 (size 256) to vulkan buffer 0x556b9dac5000
LVP: Image 0x556b9dac4020 bound to pmem 0x556b9dac5000 using pointer 0xc1e53100
LVP: Creating image_view for image 0x556b9dac4020
RTV: Creating image view at 0x556b9dac46d0
LVP: Command Buffer:
	VK_CMD_PIPELINE_BARRIER2
LVP: Command Buffer:
	VK_CMD_COPY_BUFFER_TO_IMAGE2
LVP: Command Buffer:
	VK_CMD_PIPELINE_BARRIER2
lvp_GetAccelerationStructureBuildSizesKHR
LVP: Size of BVH structure is 0x180
RTV: Rounding size of BVH structure up to 0x200
lvp_GetAccelerationStructureBuildSizesKHR
LVP: Size of BVH structure is 0x180
RTV: Rounding size of BVH structure up to 0x200
lvp_GetAccelerationStructureBuildSizesKHR
LVP: Size of BVH structure is 0x180
RTV: Rounding size of BVH structure up to 0x200
lvp_GetAccelerationStructureBuildSizesKHR
LVP: Size of BVH structure is 0x180
RTV: Rounding size of BVH structure up to 0x200
lvp_GetAccelerationStructureBuildSizesKHR
LVP: Size of BVH structure is 0x180
RTV: Rounding size of BVH structure up to 0x200
lvp_GetAccelerationStructureBuildSizesKHR
LVP: Size of BVH structure is 0x180
RTV: Rounding size of BVH structure up to 0x200
lvp_GetAccelerationStructureBuildSizesKHR
LVP: Size of BVH structure is 0x180
RTV: Rounding size of BVH structure up to 0x200
lvp_GetAccelerationStructureBuildSizesKHR
LVP: Size of BVH structure is 0x180
RTV: Rounding size of BVH structure up to 0x200
lvp_GetAccelerationStructureBuildSizesKHR
LVP: Size of BVH structure is 0x180
RTV: Rounding size of BVH structure up to 0x200
lvp_GetAccelerationStructureBuildSizesKHR
LVP: Size of BVH structure is 0x180
RTV: Rounding size of BVH structure up to 0x200
lvp_GetAccelerationStructureBuildSizesKHR
LVP: Size of BVH structure is 0x180
RTV: Rounding size of BVH structure up to 0x200
lvp_GetAccelerationStructureBuildSizesKHR
LVP: Size of BVH structure is 0x180
RTV: Rounding size of BVH structure up to 0x200
lvp_GetAccelerationStructureBuildSizesKHR
LVP: Size of BVH structure is 0x180
RTV: Rounding size of BVH structure up to 0x200
lvp_GetAccelerationStructureBuildSizesKHR
LVP: Size of BVH structure is 0x180
RTV: Rounding size of BVH structure up to 0x200
lvp_GetAccelerationStructureBuildSizesKHR
LVP: Size of BVH structure is 0x180
RTV: Rounding size of BVH structure up to 0x200
lvp_GetAccelerationStructureBuildSizesKHR
LVP: Size of BVH structure is 0x180
RTV: Rounding size of BVH structure up to 0x200
lvp_GetAccelerationStructureBuildSizesKHR
LVP: Size of BVH structure is 0x180
RTV: Rounding size of BVH structure up to 0x200
lvp_GetAccelerationStructureBuildSizesKHR
LVP: Size of BVH structure is 0x180
RTV: Rounding size of BVH structure up to 0x200
lvp_GetAccelerationStructureBuildSizesKHR
LVP: Size of BVH structure is 0x180
RTV: Rounding size of BVH structure up to 0x200
lvp_GetAccelerationStructureBuildSizesKHR
LVP: Size of BVH structure is 0x180
RTV: Rounding size of BVH structure up to 0x200
lvp_GetAccelerationStructureBuildSizesKHR
LVP: Size of BVH structure is 0x180
RTV: Rounding size of BVH structure up to 0x200
lvp_GetAccelerationStructureBuildSizesKHR
LVP: Size of BVH structure is 0x180
RTV: Rounding size of BVH structure up to 0x200
lvp_GetAccelerationStructureBuildSizesKHR
LVP: Size of BVH structure is 0x180
RTV: Rounding size of BVH structure up to 0x200
lvp_GetAccelerationStructureBuildSizesKHR
LVP: Size of BVH structure is 0x180
RTV: Rounding size of BVH structure up to 0x200
lvp_GetAccelerationStructureBuildSizesKHR
LVP: Size of BVH structure is 0x180
RTV: Rounding size of BVH structure up to 0x200
lvp_GetAccelerationStructureBuildSizesKHR
LVP: Size of BVH structure is 0x180
RTV: Rounding size of BVH structure up to 0x200
lvp_GetAccelerationStructureBuildSizesKHR
LVP: Size of BVH structure is 0x180
RTV: Rounding size of BVH structure up to 0x200
lvp_GetAccelerationStructureBuildSizesKHR
LVP: Size of BVH structure is 0x180
RTV: Rounding size of BVH structure up to 0x200
lvp_GetAccelerationStructureBuildSizesKHR
LVP: Size of BVH structure is 0x180
RTV: Rounding size of BVH structure up to 0x200
lvp_GetAccelerationStructureBuildSizesKHR
LVP: Size of BVH structure is 0x180
RTV: Rounding size of BVH structure up to 0x200
lvp_GetAccelerationStructureBuildSizesKHR
LVP: Size of BVH structure is 0x180
RTV: Rounding size of BVH structure up to 0x200
lvp_GetAccelerationStructureBuildSizesKHR
LVP: Size of BVH structure is 0x180
RTV: Rounding size of BVH structure up to 0x200
lvp_GetAccelerationStructureBuildSizesKHR
LVP: Size of BVH structure is 0x180
RTV: Rounding size of BVH structure up to 0x200
lvp_GetAccelerationStructureBuildSizesKHR
LVP: Size of BVH structure is 0x180
RTV: Rounding size of BVH structure up to 0x200
lvp_GetAccelerationStructureBuildSizesKHR
LVP: Size of BVH structure is 0x180
RTV: Rounding size of BVH structure up to 0x200
lvp_GetAccelerationStructureBuildSizesKHR
LVP: Size of BVH structure is 0x180
RTV: Rounding size of BVH structure up to 0x200
lvp_GetAccelerationStructureBuildSizesKHR
LVP: Size of BVH structure is 0x180
RTV: Rounding size of BVH structure up to 0x200
lvp_GetAccelerationStructureBuildSizesKHR
LVP: Size of BVH structure is 0x180
RTV: Rounding size of BVH structure up to 0x200
lvp_GetAccelerationStructureBuildSizesKHR
LVP: Size of BVH structure is 0x180
RTV: Rounding size of BVH structure up to 0x200
lvp_GetAccelerationStructureBuildSizesKHR
LVP: Size of BVH structure is 0x180
RTV: Rounding size of BVH structure up to 0x200
lvp_GetAccelerationStructureBuildSizesKHR
LVP: Size of BVH structure is 0x180
RTV: Rounding size of BVH structure up to 0x200
lvp_GetAccelerationStructureBuildSizesKHR
LVP: Size of BVH structure is 0x180
RTV: Rounding size of BVH structure up to 0x200
lvp_GetAccelerationStructureBuildSizesKHR
LVP: Size of BVH structure is 0x180
RTV: Rounding size of BVH structure up to 0x200
lvp_GetAccelerationStructureBuildSizesKHR
LVP: Size of BVH structure is 0x180
RTV: Rounding size of BVH structure up to 0x200
lvp_GetAccelerationStructureBuildSizesKHR
LVP: Size of BVH structure is 0x180
RTV: Rounding size of BVH structure up to 0x200
lvp_GetAccelerationStructureBuildSizesKHR
LVP: Size of BVH structure is 0x180
RTV: Rounding size of BVH structure up to 0x200
lvp_GetAccelerationStructureBuildSizesKHR
LVP: Size of BVH structure is 0x180
RTV: Rounding size of BVH structure up to 0x200
lvp_GetAccelerationStructureBuildSizesKHR
LVP: Size of BVH structure is 0x180
RTV: Rounding size of BVH structure up to 0x200
lvp_GetAccelerationStructureBuildSizesKHR
LVP: Size of BVH structure is 0x180
RTV: Rounding size of BVH structure up to 0x200
lvp_GetAccelerationStructureBuildSizesKHR
LVP: Size of BVH structure is 0x180
RTV: Rounding size of BVH structure up to 0x200
lvp_GetAccelerationStructureBuildSizesKHR
LVP: Size of BVH structure is 0x180
RTV: Rounding size of BVH structure up to 0x200
lvp_GetAccelerationStructureBuildSizesKHR
LVP: Size of BVH structure is 0x180
RTV: Rounding size of BVH structure up to 0x200
lvp_GetAccelerationStructureBuildSizesKHR
LVP: Size of BVH structure is 0x180
RTV: Rounding size of BVH structure up to 0x200
lvp_GetAccelerationStructureBuildSizesKHR
LVP: Size of BVH structure is 0x180
RTV: Rounding size of BVH structure up to 0x200
lvp_GetAccelerationStructureBuildSizesKHR
LVP: Size of BVH structure is 0x180
RTV: Rounding size of BVH structure up to 0x200
lvp_GetAccelerationStructureBuildSizesKHR
LVP: Size of BVH structure is 0x180
RTV: Rounding size of BVH structure up to 0x200
lvp_GetAccelerationStructureBuildSizesKHR
LVP: Size of BVH structure is 0x180
RTV: Rounding size of BVH structure up to 0x200
lvp_GetAccelerationStructureBuildSizesKHR
LVP: Size of BVH structure is 0x180
RTV: Rounding size of BVH structure up to 0x200
lvp_GetAccelerationStructureBuildSizesKHR
LVP: Size of BVH structure is 0x180
RTV: Rounding size of BVH structure up to 0x200
lvp_GetAccelerationStructureBuildSizesKHR
LVP: Size of BVH structure is 0x180
RTV: Rounding size of BVH structure up to 0x200
lvp_GetAccelerationStructureBuildSizesKHR
LVP: Size of BVH structure is 0x180
RTV: Rounding size of BVH structure up to 0x200
lvp_GetAccelerationStructureBuildSizesKHR
LVP: Size of BVH structure is 0x180
RTV: Rounding size of BVH structure up to 0x200
lvp_GetAccelerationStructureBuildSizesKHR
LVP: Size of BVH structure is 0x180
RTV: Rounding size of BVH structure up to 0x200
lvp_GetAccelerationStructureBuildSizesKHR
LVP: Size of BVH structure is 0x180
RTV: Rounding size of BVH structure up to 0x200
lvp_GetAccelerationStructureBuildSizesKHR
LVP: Size of BVH structure is 0x180
RTV: Rounding size of BVH structure up to 0x200
lvp_GetAccelerationStructureBuildSizesKHR
LVP: Size of BVH structure is 0x180
RTV: Rounding size of BVH structure up to 0x200
lvp_GetAccelerationStructureBuildSizesKHR
LVP: Size of BVH structure is 0x180
RTV: Rounding size of BVH structure up to 0x200
lvp_GetAccelerationStructureBuildSizesKHR
LVP: Size of BVH structure is 0x180
RTV: Rounding size of BVH structure up to 0x200
lvp_GetAccelerationStructureBuildSizesKHR
LVP: Size of BVH structure is 0x180
RTV: Rounding size of BVH structure up to 0x200
lvp_GetAccelerationStructureBuildSizesKHR
LVP: Size of BVH structure is 0x180
RTV: Rounding size of BVH structure up to 0x200
lvp_GetAccelerationStructureBuildSizesKHR
LVP: Size of BVH structure is 0x180
RTV: Rounding size of BVH structure up to 0x200
lvp_GetAccelerationStructureBuildSizesKHR
LVP: Size of BVH structure is 0x180
RTV: Rounding size of BVH structure up to 0x200
lvp_GetAccelerationStructureBuildSizesKHR
LVP: Size of BVH structure is 0x180
RTV: Rounding size of BVH structure up to 0x200
lvp_GetAccelerationStructureBuildSizesKHR
LVP: Size of BVH structure is 0x180
RTV: Rounding size of BVH structure up to 0x200
lvp_GetAccelerationStructureBuildSizesKHR
LVP: Size of BVH structure is 0x180
RTV: Rounding size of BVH structure up to 0x200
lvp_GetAccelerationStructureBuildSizesKHR
LVP: Size of BVH structure is 0x180
RTV: Rounding size of BVH structure up to 0x200
lvp_GetAccelerationStructureBuildSizesKHR
LVP: Size of BVH structure is 0x180
RTV: Rounding size of BVH structure up to 0x200
lvp_GetAccelerationStructureBuildSizesKHR
LVP: Size of BVH structure is 0x180
RTV: Rounding size of BVH structure up to 0x200
lvp_GetAccelerationStructureBuildSizesKHR
LVP: Size of BVH structure is 0x180
RTV: Rounding size of BVH structure up to 0x200
lvp_GetAccelerationStructureBuildSizesKHR
LVP: Size of BVH structure is 0x180
RTV: Rounding size of BVH structure up to 0x200
lvp_GetAccelerationStructureBuildSizesKHR
LVP: Size of BVH structure is 0x180
RTV: Rounding size of BVH structure up to 0x200
lvp_GetAccelerationStructureBuildSizesKHR
LVP: Size of BVH structure is 0x180
RTV: Rounding size of BVH structure up to 0x200
lvp_GetAccelerationStructureBuildSizesKHR
LVP: Size of BVH structure is 0x180
RTV: Rounding size of BVH structure up to 0x200
lvp_GetAccelerationStructureBuildSizesKHR
LVP: Size of BVH structure is 0x180
RTV: Rounding size of BVH structure up to 0x200
lvp_GetAccelerationStructureBuildSizesKHR
LVP: Size of BVH structure is 0x180
RTV: Rounding size of BVH structure up to 0x200
lvp_GetAccelerationStructureBuildSizesKHR
LVP: Size of BVH structure is 0x180
RTV: Rounding size of BVH structure up to 0x200
lvp_GetAccelerationStructureBuildSizesKHR
LVP: Size of BVH structure is 0x180
RTV: Rounding size of BVH structure up to 0x200
lvp_GetAccelerationStructureBuildSizesKHR
LVP: Size of BVH structure is 0x180
RTV: Rounding size of BVH structure up to 0x200
lvp_GetAccelerationStructureBuildSizesKHR
LVP: Size of BVH structure is 0x180
RTV: Rounding size of BVH structure up to 0x200
lvp_GetAccelerationStructureBuildSizesKHR
LVP: Size of BVH structure is 0x180
RTV: Rounding size of BVH structure up to 0x200
lvp_GetAccelerationStructureBuildSizesKHR
LVP: Size of BVH structure is 0x180
RTV: Rounding size of BVH structure up to 0x200
lvp_GetAccelerationStructureBuildSizesKHR
LVP: Size of BVH structure is 0x180
RTV: Rounding size of BVH structure up to 0x200
lvp_GetAccelerationStructureBuildSizesKHR
LVP: Size of BVH structure is 0x180
RTV: Rounding size of BVH structure up to 0x200
lvp_GetAccelerationStructureBuildSizesKHR
LVP: Size of BVH structure is 0x180
RTV: Rounding size of BVH structure up to 0x200
lvp_GetAccelerationStructureBuildSizesKHR
LVP: Size of BVH structure is 0x180
RTV: Rounding size of BVH structure up to 0x200
lvp_GetAccelerationStructureBuildSizesKHR
LVP: Size of BVH structure is 0x180
RTV: Rounding size of BVH structure up to 0x200
lvp_GetAccelerationStructureBuildSizesKHR
LVP: Size of BVH structure is 0x180
RTV: Rounding size of BVH structure up to 0x200
lvp_GetAccelerationStructureBuildSizesKHR
LVP: Size of BVH structure is 0x180
RTV: Rounding size of BVH structure up to 0x200
lvp_GetAccelerationStructureBuildSizesKHR
LVP: Size of BVH structure is 0x180
RTV: Rounding size of BVH structure up to 0x200
lvp_GetAccelerationStructureBuildSizesKHR
LVP: Size of BVH structure is 0x180
RTV: Rounding size of BVH structure up to 0x200
lvp_GetAccelerationStructureBuildSizesKHR
LVP: Size of BVH structure is 0x180
RTV: Rounding size of BVH structure up to 0x200
lvp_GetAccelerationStructureBuildSizesKHR
LVP: Size of BVH structure is 0x180
RTV: Rounding size of BVH structure up to 0x200
lvp_GetAccelerationStructureBuildSizesKHR
LVP: Size of BVH structure is 0x180
RTV: Rounding size of BVH structure up to 0x200
lvp_GetAccelerationStructureBuildSizesKHR
LVP: Size of BVH structure is 0x180
RTV: Rounding size of BVH structure up to 0x200
lvp_GetAccelerationStructureBuildSizesKHR
LVP: Size of BVH structure is 0x180
RTV: Rounding size of BVH structure up to 0x200
lvp_GetAccelerationStructureBuildSizesKHR
LVP: Size of BVH structure is 0x180
RTV: Rounding size of BVH structure up to 0x200
lvp_GetAccelerationStructureBuildSizesKHR
LVP: Size of BVH structure is 0x180
RTV: Rounding size of BVH structure up to 0x200
lvp_GetAccelerationStructureBuildSizesKHR
LVP: Size of BVH structure is 0x180
RTV: Rounding size of BVH structure up to 0x200
lvp_GetAccelerationStructureBuildSizesKHR
LVP: Size of BVH structure is 0x180
RTV: Rounding size of BVH structure up to 0x200
lvp_GetAccelerationStructureBuildSizesKHR
LVP: Size of BVH structure is 0x180
RTV: Rounding size of BVH structure up to 0x200
lvp_GetAccelerationStructureBuildSizesKHR
LVP: Size of BVH structure is 0x180
RTV: Rounding size of BVH structure up to 0x200
lvp_GetAccelerationStructureBuildSizesKHR
LVP: Size of BVH structure is 0x180
RTV: Rounding size of BVH structure up to 0x200
lvp_GetAccelerationStructureBuildSizesKHR
LVP: Size of BVH structure is 0x180
RTV: Rounding size of BVH structure up to 0x200
lvp_GetAccelerationStructureBuildSizesKHR
LVP: Size of BVH structure is 0x180
RTV: Rounding size of BVH structure up to 0x200
lvp_GetAccelerationStructureBuildSizesKHR
LVP: Size of BVH structure is 0x180
RTV: Rounding size of BVH structure up to 0x200
lvp_GetAccelerationStructureBuildSizesKHR
LVP: Size of BVH structure is 0x180
RTV: Rounding size of BVH structure up to 0x200
lvp_GetAccelerationStructureBuildSizesKHR
LVP: Size of BVH structure is 0x180
RTV: Rounding size of BVH structure up to 0x200
lvp_GetAccelerationStructureBuildSizesKHR
LVP: Size of BVH structure is 0x180
RTV: Rounding size of BVH structure up to 0x200
lvp_GetAccelerationStructureBuildSizesKHR
LVP: Size of BVH structure is 0x180
RTV: Rounding size of BVH structure up to 0x200
lvp_GetAccelerationStructureBuildSizesKHR
LVP: Size of BVH structure is 0x180
RTV: Rounding size of BVH structure up to 0x200
lvp_GetAccelerationStructureBuildSizesKHR
LVP: Size of BVH structure is 0x180
RTV: Rounding size of BVH structure up to 0x200
lvp_GetAccelerationStructureBuildSizesKHR
LVP: Size of BVH structure is 0x180
RTV: Rounding size of BVH structure up to 0x200
lvp_GetAccelerationStructureBuildSizesKHR
LVP: Size of BVH structure is 0x180
RTV: Rounding size of BVH structure up to 0x200
lvp_GetAccelerationStructureBuildSizesKHR
LVP: Size of BVH structure is 0x180
RTV: Rounding size of BVH structure up to 0x200
lvp_GetAccelerationStructureBuildSizesKHR
LVP: Size of BVH structure is 0x180
RTV: Rounding size of BVH structure up to 0x200
lvp_GetAccelerationStructureBuildSizesKHR
LVP: Size of BVH structure is 0x180
RTV: Rounding size of BVH structure up to 0x200
lvp_GetAccelerationStructureBuildSizesKHR
LVP: Size of BVH structure is 0x180
RTV: Rounding size of BVH structure up to 0x200
lvp_GetAccelerationStructureBuildSizesKHR
LVP: Size of BVH structure is 0x180
RTV: Rounding size of BVH structure up to 0x200
lvp_GetAccelerationStructureBuildSizesKHR
LVP: Size of BVH structure is 0x180
RTV: Rounding size of BVH structure up to 0x200
lvp_GetAccelerationStructureBuildSizesKHR
LVP: Size of BVH structure is 0x180
RTV: Rounding size of BVH structure up to 0x200
lvp_GetAccelerationStructureBuildSizesKHR
LVP: Size of BVH structure is 0x180
RTV: Rounding size of BVH structure up to 0x200
lvp_GetAccelerationStructureBuildSizesKHR
LVP: Size of BVH structure is 0x180
RTV: Rounding size of BVH structure up to 0x200
lvp_GetAccelerationStructureBuildSizesKHR
LVP: Size of BVH structure is 0x180
RTV: Rounding size of BVH structure up to 0x200
lvp_GetAccelerationStructureBuildSizesKHR
LVP: Size of BVH structure is 0x180
RTV: Rounding size of BVH structure up to 0x200
lvp_GetAccelerationStructureBuildSizesKHR
LVP: Size of BVH structure is 0x180
RTV: Rounding size of BVH structure up to 0x200
lvp_GetAccelerationStructureBuildSizesKHR
LVP: Size of BVH structure is 0x180
RTV: Rounding size of BVH structure up to 0x200
lvp_GetAccelerationStructureBuildSizesKHR
LVP: Size of BVH structure is 0x180
RTV: Rounding size of BVH structure up to 0x200
lvp_GetAccelerationStructureBuildSizesKHR
LVP: Size of BVH structure is 0x180
RTV: Rounding size of BVH structure up to 0x200
lvp_GetAccelerationStructureBuildSizesKHR
LVP: Size of BVH structure is 0x180
RTV: Rounding size of BVH structure up to 0x200
lvp_GetAccelerationStructureBuildSizesKHR
LVP: Size of BVH structure is 0x180
RTV: Rounding size of BVH structure up to 0x200
lvp_GetAccelerationStructureBuildSizesKHR
LVP: Size of BVH structure is 0x180
RTV: Rounding size of BVH structure up to 0x200
lvp_GetAccelerationStructureBuildSizesKHR
LVP: Size of BVH structure is 0x180
RTV: Rounding size of BVH structure up to 0x200
lvp_GetAccelerationStructureBuildSizesKHR
LVP: Size of BVH structure is 0x180
RTV: Rounding size of BVH structure up to 0x200
lvp_GetAccelerationStructureBuildSizesKHR
LVP: Size of BVH structure is 0x180
RTV: Rounding size of BVH structure up to 0x200
lvp_GetAccelerationStructureBuildSizesKHR
LVP: Size of BVH structure is 0x180
RTV: Rounding size of BVH structure up to 0x200
lvp_GetAccelerationStructureBuildSizesKHR
LVP: Size of BVH structure is 0x180
RTV: Rounding size of BVH structure up to 0x200
lvp_GetAccelerationStructureBuildSizesKHR
LVP: Size of BVH structure is 0x180
RTV: Rounding size of BVH structure up to 0x200
lvp_GetAccelerationStructureBuildSizesKHR
LVP: Size of BVH structure is 0x180
RTV: Rounding size of BVH structure up to 0x200
lvp_GetAccelerationStructureBuildSizesKHR
LVP: Size of BVH structure is 0x180
RTV: Rounding size of BVH structure up to 0x200
lvp_GetAccelerationStructureBuildSizesKHR
LVP: Size of BVH structure is 0x180
RTV: Rounding size of BVH structure up to 0x200
lvp_GetAccelerationStructureBuildSizesKHR
LVP: Size of BVH structure is 0x180
RTV: Rounding size of BVH structure up to 0x200
lvp_GetAccelerationStructureBuildSizesKHR
LVP: Size of BVH structure is 0x180
RTV: Rounding size of BVH structure up to 0x200
lvp_GetAccelerationStructureBuildSizesKHR
LVP: Size of BVH structure is 0x180
RTV: Rounding size of BVH structure up to 0x200
lvp_GetAccelerationStructureBuildSizesKHR
LVP: Size of BVH structure is 0x180
RTV: Rounding size of BVH structure up to 0x200
lvp_GetAccelerationStructureBuildSizesKHR
LVP: Size of BVH structure is 0x180
RTV: Rounding size of BVH structure up to 0x200
lvp_GetAccelerationStructureBuildSizesKHR
LVP: Size of BVH structure is 0x180
RTV: Rounding size of BVH structure up to 0x200
lvp_GetAccelerationStructureBuildSizesKHR
LVP: Size of BVH structure is 0x180
RTV: Rounding size of BVH structure up to 0x200
lvp_GetAccelerationStructureBuildSizesKHR
LVP: Size of BVH structure is 0x180
RTV: Rounding size of BVH structure up to 0x200
lvp_GetAccelerationStructureBuildSizesKHR
LVP: Size of BVH structure is 0x180
RTV: Rounding size of BVH structure up to 0x200
lvp_GetAccelerationStructureBuildSizesKHR
LVP: Size of BVH structure is 0x180
RTV: Rounding size of BVH structure up to 0x200
lvp_GetAccelerationStructureBuildSizesKHR
LVP: Size of BVH structure is 0x180
RTV: Rounding size of BVH structure up to 0x200
lvp_GetAccelerationStructureBuildSizesKHR
LVP: Size of BVH structure is 0x180
RTV: Rounding size of BVH structure up to 0x200
lvp_GetAccelerationStructureBuildSizesKHR
LVP: Size of BVH structure is 0x180
RTV: Rounding size of BVH structure up to 0x200
lvp_GetAccelerationStructureBuildSizesKHR
LVP: Size of BVH structure is 0x180
RTV: Rounding size of BVH structure up to 0x200
lvp_GetAccelerationStructureBuildSizesKHR
LVP: Size of BVH structure is 0x180
RTV: Rounding size of BVH structure up to 0x200
lvp_GetAccelerationStructureBuildSizesKHR
LVP: Size of BVH structure is 0x180
RTV: Rounding size of BVH structure up to 0x200
lvp_GetAccelerationStructureBuildSizesKHR
LVP: Size of BVH structure is 0x180
RTV: Rounding size of BVH structure up to 0x200
lvp_GetAccelerationStructureBuildSizesKHR
LVP: Size of BVH structure is 0x180
RTV: Rounding size of BVH structure up to 0x200
lvp_GetAccelerationStructureBuildSizesKHR
LVP: Size of BVH structure is 0x180
RTV: Rounding size of BVH structure up to 0x200
lvp_GetAccelerationStructureBuildSizesKHR
LVP: Size of BVH structure is 0x180
RTV: Rounding size of BVH structure up to 0x200
lvp_GetAccelerationStructureBuildSizesKHR
LVP: Size of BVH structure is 0x180
RTV: Rounding size of BVH structure up to 0x200
lvp_GetAccelerationStructureBuildSizesKHR
LVP: Size of BVH structure is 0x180
RTV: Rounding size of BVH structure up to 0x200
lvp_GetAccelerationStructureBuildSizesKHR
LVP: Size of BVH structure is 0x180
RTV: Rounding size of BVH structure up to 0x200
lvp_GetAccelerationStructureBuildSizesKHR
LVP: Size of BVH structure is 0x180
RTV: Rounding size of BVH structure up to 0x200
lvp_GetAccelerationStructureBuildSizesKHR
LVP: Size of BVH structure is 0x180
RTV: Rounding size of BVH structure up to 0x200
lvp_GetAccelerationStructureBuildSizesKHR
LVP: Size of BVH structure is 0x180
RTV: Rounding size of BVH structure up to 0x200
lvp_GetAccelerationStructureBuildSizesKHR
LVP: Size of BVH structure is 0x180
RTV: Rounding size of BVH structure up to 0x200
lvp_GetAccelerationStructureBuildSizesKHR
LVP: Size of BVH structure is 0x180
RTV: Rounding size of BVH structure up to 0x200
lvp_GetAccelerationStructureBuildSizesKHR
LVP: Size of BVH structure is 0x180
RTV: Rounding size of BVH structure up to 0x200
lvp_GetAccelerationStructureBuildSizesKHR
LVP: Size of BVH structure is 0x180
RTV: Rounding size of BVH structure up to 0x200
lvp_GetAccelerationStructureBuildSizesKHR
LVP: Size of BVH structure is 0x180
RTV: Rounding size of BVH structure up to 0x200
lvp_GetAccelerationStructureBuildSizesKHR
LVP: Size of BVH structure is 0x180
RTV: Rounding size of BVH structure up to 0x200
lvp_GetAccelerationStructureBuildSizesKHR
LVP: Size of BVH structure is 0x180
RTV: Rounding size of BVH structure up to 0x200
lvp_GetAccelerationStructureBuildSizesKHR
LVP: Size of BVH structure is 0x180
RTV: Rounding size of BVH structure up to 0x200
lvp_GetAccelerationStructureBuildSizesKHR
LVP: Size of BVH structure is 0x180
RTV: Rounding size of BVH structure up to 0x200
lvp_GetAccelerationStructureBuildSizesKHR
LVP: Size of BVH structure is 0x180
RTV: Rounding size of BVH structure up to 0x200
lvp_GetAccelerationStructureBuildSizesKHR
LVP: Size of BVH structure is 0x180
RTV: Rounding size of BVH structure up to 0x200
lvp_GetAccelerationStructureBuildSizesKHR
LVP: Size of BVH structure is 0x180
RTV: Rounding size of BVH structure up to 0x200
lvp_GetAccelerationStructureBuildSizesKHR
LVP: Size of BVH structure is 0x180
RTV: Rounding size of BVH structure up to 0x200
lvp_GetAccelerationStructureBuildSizesKHR
LVP: Size of BVH structure is 0x180
RTV: Rounding size of BVH structure up to 0x200
lvp_GetAccelerationStructureBuildSizesKHR
LVP: Size of BVH structure is 0x180
RTV: Rounding size of BVH structure up to 0x200
lvp_GetAccelerationStructureBuildSizesKHR
LVP: Size of BVH structure is 0x180
RTV: Rounding size of BVH structure up to 0x200
lvp_GetAccelerationStructureBuildSizesKHR
LVP: Size of BVH structure is 0x180
RTV: Rounding size of BVH structure up to 0x200
lvp_GetAccelerationStructureBuildSizesKHR
LVP: Size of BVH structure is 0x180
RTV: Rounding size of BVH structure up to 0x200
lvp_GetAccelerationStructureBuildSizesKHR
LVP: Size of BVH structure is 0x180
RTV: Rounding size of BVH structure up to 0x200
lvp_GetAccelerationStructureBuildSizesKHR
LVP: Size of BVH structure is 0x180
RTV: Rounding size of BVH structure up to 0x200
lvp_GetAccelerationStructureBuildSizesKHR
LVP: Size of BVH structure is 0x180
RTV: Rounding size of BVH structure up to 0x200
lvp_GetAccelerationStructureBuildSizesKHR
LVP: Size of BVH structure is 0x180
RTV: Rounding size of BVH structure up to 0x200
lvp_GetAccelerationStructureBuildSizesKHR
LVP: Size of BVH structure is 0x180
RTV: Rounding size of BVH structure up to 0x200
lvp_GetAccelerationStructureBuildSizesKHR
LVP: Size of BVH structure is 0x180
RTV: Rounding size of BVH structure up to 0x200
lvp_GetAccelerationStructureBuildSizesKHR
LVP: Size of BVH structure is 0x180
RTV: Rounding size of BVH structure up to 0x200
lvp_GetAccelerationStructureBuildSizesKHR
LVP: Size of BVH structure is 0x180
RTV: Rounding size of BVH structure up to 0x200
lvp_GetAccelerationStructureBuildSizesKHR
LVP: Size of BVH structure is 0x180
RTV: Rounding size of BVH structure up to 0x200
lvp_GetAccelerationStructureBuildSizesKHR
LVP: Size of BVH structure is 0x180
RTV: Rounding size of BVH structure up to 0x200
lvp_GetAccelerationStructureBuildSizesKHR
LVP: Size of BVH structure is 0x180
RTV: Rounding size of BVH structure up to 0x200
lvp_GetAccelerationStructureBuildSizesKHR
LVP: Size of BVH structure is 0x180
RTV: Rounding size of BVH structure up to 0x200
lvp_GetAccelerationStructureBuildSizesKHR
LVP: Size of BVH structure is 0x180
RTV: Rounding size of BVH structure up to 0x200
lvp_GetAccelerationStructureBuildSizesKHR
LVP: Size of BVH structure is 0x180
RTV: Rounding size of BVH structure up to 0x200
lvp_GetAccelerationStructureBuildSizesKHR
LVP: Size of BVH structure is 0x180
RTV: Rounding size of BVH structure up to 0x200
lvp_GetAccelerationStructureBuildSizesKHR
LVP: Size of BVH structure is 0x180
RTV: Rounding size of BVH structure up to 0x200
lvp_GetAccelerationStructureBuildSizesKHR
LVP: Size of BVH structure is 0x180
RTV: Rounding size of BVH structure up to 0x200
lvp_GetAccelerationStructureBuildSizesKHR
LVP: Size of BVH structure is 0x180
RTV: Rounding size of BVH structure up to 0x200
lvp_GetAccelerationStructureBuildSizesKHR
LVP: Size of BVH structure is 0x180
RTV: Rounding size of BVH structure up to 0x200
lvp_GetAccelerationStructureBuildSizesKHR
LVP: Size of BVH structure is 0x180
RTV: Rounding size of BVH structure up to 0x200
lvp_GetAccelerationStructureBuildSizesKHR
LVP: Size of BVH structure is 0x180
RTV: Rounding size of BVH structure up to 0x200
lvp_GetAccelerationStructureBuildSizesKHR
LVP: Size of BVH structure is 0x180
RTV: Rounding size of BVH structure up to 0x200
lvp_GetAccelerationStructureBuildSizesKHR
LVP: Size of BVH structure is 0x180
RTV: Rounding size of BVH structure up to 0x200
lvp_GetAccelerationStructureBuildSizesKHR
LVP: Size of BVH structure is 0x180
RTV: Rounding size of BVH structure up to 0x200
lvp_GetAccelerationStructureBuildSizesKHR
LVP: Size of BVH structure is 0x180
RTV: Rounding size of BVH structure up to 0x200
lvp_GetAccelerationStructureBuildSizesKHR
LVP: Size of BVH structure is 0x180
RTV: Rounding size of BVH structure up to 0x200
lvp_GetAccelerationStructureBuildSizesKHR
LVP: Size of BVH structure is 0x180
RTV: Rounding size of BVH structure up to 0x200
lvp_GetAccelerationStructureBuildSizesKHR
LVP: Size of BVH structure is 0x180
RTV: Rounding size of BVH structure up to 0x200
lvp_GetAccelerationStructureBuildSizesKHR
LVP: Size of BVH structure is 0x180
RTV: Rounding size of BVH structure up to 0x200
lvp_GetAccelerationStructureBuildSizesKHR
LVP: Size of BVH structure is 0x180
RTV: Rounding size of BVH structure up to 0x200
lvp_GetAccelerationStructureBuildSizesKHR
LVP: Size of BVH structure is 0x180
RTV: Rounding size of BVH structure up to 0x200
lvp_GetAccelerationStructureBuildSizesKHR
LVP: Size of BVH structure is 0x180
RTV: Rounding size of BVH structure up to 0x200
lvp_GetAccelerationStructureBuildSizesKHR
LVP: Size of BVH structure is 0x180
RTV: Rounding size of BVH structure up to 0x200
lvp_GetAccelerationStructureBuildSizesKHR
LVP: Size of BVH structure is 0x180
RTV: Rounding size of BVH structure up to 0x200
lvp_GetAccelerationStructureBuildSizesKHR
LVP: Size of BVH structure is 0x180
RTV: Rounding size of BVH structure up to 0x200
lvp_GetAccelerationStructureBuildSizesKHR
LVP: Size of BVH structure is 0x180
RTV: Rounding size of BVH structure up to 0x200
lvp_GetAccelerationStructureBuildSizesKHR
LVP: Size of BVH structure is 0x180
RTV: Rounding size of BVH structure up to 0x200
lvp_GetAccelerationStructureBuildSizesKHR
LVP: Size of BVH structure is 0x180
RTV: Rounding size of BVH structure up to 0x200
lvp_GetAccelerationStructureBuildSizesKHR
LVP: Size of BVH structure is 0x180
RTV: Rounding size of BVH structure up to 0x200
lvp_GetAccelerationStructureBuildSizesKHR
LVP: Size of BVH structure is 0x180
RTV: Rounding size of BVH structure up to 0x200
lvp_GetAccelerationStructureBuildSizesKHR
LVP: Size of BVH structure is 0x180
RTV: Rounding size of BVH structure up to 0x200
lvp_GetAccelerationStructureBuildSizesKHR
LVP: Size of BVH structure is 0x180
RTV: Rounding size of BVH structure up to 0x200
lvp_GetAccelerationStructureBuildSizesKHR
LVP: Size of BVH structure is 0x180
RTV: Rounding size of BVH structure up to 0x200
lvp_GetAccelerationStructureBuildSizesKHR
LVP: Size of BVH structure is 0x180
RTV: Rounding size of BVH structure up to 0x200
lvp_GetAccelerationStructureBuildSizesKHR
LVP: Size of BVH structure is 0x180
RTV: Rounding size of BVH structure up to 0x200
lvp_GetAccelerationStructureBuildSizesKHR
LVP: Size of BVH structure is 0x180
RTV: Rounding size of BVH structure up to 0x200
lvp_GetAccelerationStructureBuildSizesKHR
LVP: Size of BVH structure is 0x180
RTV: Rounding size of BVH structure up to 0x200
lvp_GetAccelerationStructureBuildSizesKHR
LVP: Size of BVH structure is 0x180
RTV: Rounding size of BVH structure up to 0x200
lvp_GetAccelerationStructureBuildSizesKHR
LVP: Size of BVH structure is 0x180
RTV: Rounding size of BVH structure up to 0x200
lvp_GetAccelerationStructureBuildSizesKHR
LVP: Size of BVH structure is 0x180
RTV: Rounding size of BVH structure up to 0x200
lvp_GetAccelerationStructureBuildSizesKHR
LVP: Size of BVH structure is 0x180
RTV: Rounding size of BVH structure up to 0x200
lvp_GetAccelerationStructureBuildSizesKHR
LVP: Size of BVH structure is 0x180
RTV: Rounding size of BVH structure up to 0x200
lvp_GetAccelerationStructureBuildSizesKHR
LVP: Size of BVH structure is 0x180
RTV: Rounding size of BVH structure up to 0x200
lvp_GetAccelerationStructureBuildSizesKHR
LVP: Size of BVH structure is 0x180
RTV: Rounding size of BVH structure up to 0x200
lvp_GetAccelerationStructureBuildSizesKHR
LVP: Size of BVH structure is 0x180
RTV: Rounding size of BVH structure up to 0x200
lvp_GetAccelerationStructureBuildSizesKHR
LVP: Size of BVH structure is 0x180
RTV: Rounding size of BVH structure up to 0x200
lvp_GetAccelerationStructureBuildSizesKHR
LVP: Size of BVH structure is 0x180
RTV: Rounding size of BVH structure up to 0x200
lvp_GetAccelerationStructureBuildSizesKHR
LVP: Size of BVH structure is 0x180
RTV: Rounding size of BVH structure up to 0x200
lvp_GetAccelerationStructureBuildSizesKHR
LVP: Size of BVH structure is 0x180
RTV: Rounding size of BVH structure up to 0x200
lvp_GetAccelerationStructureBuildSizesKHR
LVP: Size of BVH structure is 0x180
RTV: Rounding size of BVH structure up to 0x200
lvp_GetAccelerationStructureBuildSizesKHR
LVP: Size of BVH structure is 0x180
RTV: Rounding size of BVH structure up to 0x200
lvp_GetAccelerationStructureBuildSizesKHR
LVP: Size of BVH structure is 0x180
RTV: Rounding size of BVH structure up to 0x200
lvp_GetAccelerationStructureBuildSizesKHR
LVP: Size of BVH structure is 0x180
RTV: Rounding size of BVH structure up to 0x200
lvp_GetAccelerationStructureBuildSizesKHR
LVP: Size of BVH structure is 0x180
RTV: Rounding size of BVH structure up to 0x200
lvp_GetAccelerationStructureBuildSizesKHR
LVP: Size of BVH structure is 0x180
RTV: Rounding size of BVH structure up to 0x200
lvp_GetAccelerationStructureBuildSizesKHR
LVP: Size of BVH structure is 0x180
RTV: Rounding size of BVH structure up to 0x200
lvp_GetAccelerationStructureBuildSizesKHR
LVP: Size of BVH structure is 0x180
RTV: Rounding size of BVH structure up to 0x200
lvp_GetAccelerationStructureBuildSizesKHR
LVP: Size of BVH structure is 0x180
RTV: Rounding size of BVH structure up to 0x200
lvp_GetAccelerationStructureBuildSizesKHR
LVP: Size of BVH structure is 0x180
RTV: Rounding size of BVH structure up to 0x200
lvp_GetAccelerationStructureBuildSizesKHR
LVP: Size of BVH structure is 0x180
RTV: Rounding size of BVH structure up to 0x200
lvp_GetAccelerationStructureBuildSizesKHR
LVP: Size of BVH structure is 0x180
RTV: Rounding size of BVH structure up to 0x200
lvp_GetAccelerationStructureBuildSizesKHR
LVP: Size of BVH structure is 0x180
RTV: Rounding size of BVH structure up to 0x200
lvp_GetAccelerationStructureBuildSizesKHR
LVP: Size of BVH structure is 0x180
RTV: Rounding size of BVH structure up to 0x200
lvp_GetAccelerationStructureBuildSizesKHR
LVP: Size of BVH structure is 0x180
RTV: Rounding size of BVH structure up to 0x200
lvp_GetAccelerationStructureBuildSizesKHR
LVP: Size of BVH structure is 0x180
RTV: Rounding size of BVH structure up to 0x200
lvp_GetAccelerationStructureBuildSizesKHR
LVP: Size of BVH structure is 0x180
RTV: Rounding size of BVH structure up to 0x200
lvp_GetAccelerationStructureBuildSizesKHR
LVP: Size of BVH structure is 0x180
RTV: Rounding size of BVH structure up to 0x200
lvp_GetAccelerationStructureBuildSizesKHR
LVP: Size of BVH structure is 0x180
RTV: Rounding size of BVH structure up to 0x200
lvp_GetAccelerationStructureBuildSizesKHR
LVP: Size of BVH structure is 0x180
RTV: Rounding size of BVH structure up to 0x200
lvp_GetAccelerationStructureBuildSizesKHR
LVP: Size of BVH structure is 0x180
RTV: Rounding size of BVH structure up to 0x200
lvp_GetAccelerationStructureBuildSizesKHR
LVP: Size of BVH structure is 0x180
RTV: Rounding size of BVH structure up to 0x200
lvp_GetAccelerationStructureBuildSizesKHR
LVP: Size of BVH structure is 0x180
RTV: Rounding size of BVH structure up to 0x200
lvp_GetAccelerationStructureBuildSizesKHR
LVP: Size of BVH structure is 0x180
RTV: Rounding size of BVH structure up to 0x200
lvp_GetAccelerationStructureBuildSizesKHR
LVP: Size of BVH structure is 0x180
RTV: Rounding size of BVH structure up to 0x200
lvp_GetAccelerationStructureBuildSizesKHR
LVP: Size of BVH structure is 0x180
RTV: Rounding size of BVH structure up to 0x200
lvp_GetAccelerationStructureBuildSizesKHR
LVP: Size of BVH structure is 0x180
RTV: Rounding size of BVH structure up to 0x200
lvp_GetAccelerationStructureBuildSizesKHR
LVP: Size of BVH structure is 0x180
RTV: Rounding size of BVH structure up to 0x200
lvp_GetAccelerationStructureBuildSizesKHR
LVP: Size of BVH structure is 0x180
RTV: Rounding size of BVH structure up to 0x200
lvp_GetAccelerationStructureBuildSizesKHR
LVP: Size of BVH structure is 0x180
RTV: Rounding size of BVH structure up to 0x200
lvp_GetAccelerationStructureBuildSizesKHR
LVP: Size of BVH structure is 0x180
RTV: Rounding size of BVH structure up to 0x200
lvp_GetAccelerationStructureBuildSizesKHR
LVP: Size of BVH structure is 0x180
RTV: Rounding size of BVH structure up to 0x200
lvp_GetAccelerationStructureBuildSizesKHR
LVP: Size of BVH structure is 0x180
RTV: Rounding size of BVH structure up to 0x200
lvp_GetAccelerationStructureBuildSizesKHR
LVP: Size of BVH structure is 0x180
RTV: Rounding size of BVH structure up to 0x200
lvp_GetAccelerationStructureBuildSizesKHR
LVP: Size of BVH structure is 0x180
RTV: Rounding size of BVH structure up to 0x200
lvp_GetAccelerationStructureBuildSizesKHR
LVP: Size of BVH structure is 0x180
RTV: Rounding size of BVH structure up to 0x200
lvp_GetAccelerationStructureBuildSizesKHR
LVP: Size of BVH structure is 0x180
RTV: Rounding size of BVH structure up to 0x200
lvp_GetAccelerationStructureBuildSizesKHR
LVP: Size of BVH structure is 0x180
RTV: Rounding size of BVH structure up to 0x200
lvp_GetAccelerationStructureBuildSizesKHR
LVP: Size of BVH structure is 0x180
RTV: Rounding size of BVH structure up to 0x200
lvp_GetAccelerationStructureBuildSizesKHR
LVP: Size of BVH structure is 0x180
RTV: Rounding size of BVH structure up to 0x200
lvp_GetAccelerationStructureBuildSizesKHR
LVP: Size of BVH structure is 0x180
RTV: Rounding size of BVH structure up to 0x200
lvp_GetAccelerationStructureBuildSizesKHR
LVP: Size of BVH structure is 0x180
RTV: Rounding size of BVH structure up to 0x200
lvp_GetAccelerationStructureBuildSizesKHR
LVP: Size of BVH structure is 0x180
RTV: Rounding size of BVH structure up to 0x200
lvp_GetAccelerationStructureBuildSizesKHR
LVP: Size of BVH structure is 0x180
RTV: Rounding size of BVH structure up to 0x200
lvp_GetAccelerationStructureBuildSizesKHR
LVP: Size of BVH structure is 0x180
RTV: Rounding size of BVH structure up to 0x200
lvp_GetAccelerationStructureBuildSizesKHR
[...]
	Total_core_cache_stats_breakdown[BRU_RT_FILL][HIT_RESERVED] = 0
	Total_core_cache_stats_breakdown[BRU_RT_FILL][MISS] = 0
	Total_core_cache_stats_breakdown[BRU_RT_FILL][RESERVATION_FAIL] = 0
	Total_core_cache_stats_breakdown[BRU_RT_FILL][SECTOR_MISS] = 0
	Total_core_cache_stats_breakdown[LOCAL_ACC_W][HIT] = 0
	Total_core_cache_stats_breakdown[LOCAL_ACC_W][HIT_RESERVED] = 0
	Total_core_cache_stats_breakdown[LOCAL_ACC_W][MISS] = 0
	Total_core_cache_stats_breakdown[LOCAL_ACC_W][RESERVATION_FAIL] = 0
	Total_core_cache_stats_breakdown[LOCAL_ACC_W][SECTOR_MISS] = 0
	Total_core_cache_stats_breakdown[L1_WRBK_ACC][HIT] = 0
	Total_core_cache_stats_breakdown[L1_WRBK_ACC][HIT_RESERVED] = 0
	Total_core_cache_stats_breakdown[L1_WRBK_ACC][MISS] = 0
	Total_core_cache_stats_breakdown[L1_WRBK_ACC][RESERVATION_FAIL] = 0
	Total_core_cache_stats_breakdown[L1_WRBK_ACC][SECTOR_MISS] = 0
	Total_core_cache_stats_breakdown[L2_WRBK_ACC][HIT] = 0
	Total_core_cache_stats_breakdown[L2_WRBK_ACC][HIT_RESERVED] = 0
	Total_core_cache_stats_breakdown[L2_WRBK_ACC][MISS] = 0
	Total_core_cache_stats_breakdown[L2_WRBK_ACC][RESERVATION_FAIL] = 0
	Total_core_cache_stats_breakdown[L2_WRBK_ACC][SECTOR_MISS] = 0
	Total_core_cache_stats_breakdown[INST_ACC_R][HIT] = 0
	Total_core_cache_stats_breakdown[INST_ACC_R][HIT_RESERVED] = 0
	Total_core_cache_stats_breakdown[INST_ACC_R][MISS] = 0
	Total_core_cache_stats_breakdown[INST_ACC_R][RESERVATION_FAIL] = 0
	Total_core_cache_stats_breakdown[INST_ACC_R][SECTOR_MISS] = 0
	Total_core_cache_stats_breakdown[L1_WR_ALLOC_R][HIT] = 0
	Total_core_cache_stats_breakdown[L1_WR_ALLOC_R][HIT_RESERVED] = 0
	Total_core_cache_stats_breakdown[L1_WR_ALLOC_R][MISS] = 0
	Total_core_cache_stats_breakdown[L1_WR_ALLOC_R][RESERVATION_FAIL] = 0
	Total_core_cache_stats_breakdown[L1_WR_ALLOC_R][SECTOR_MISS] = 0
	Total_core_cache_stats_breakdown[L2_WR_ALLOC_R][HIT] = 0
	Total_core_cache_stats_breakdown[L2_WR_ALLOC_R][HIT_RESERVED] = 0
	Total_core_cache_stats_breakdown[L2_WR_ALLOC_R][MISS] = 0
	Total_core_cache_stats_breakdown[L2_WR_ALLOC_R][RESERVATION_FAIL] = 0
	Total_core_cache_stats_breakdown[L2_WR_ALLOC_R][SECTOR_MISS] = 0
	Total_core_cache_stats_breakdown[GLOBAL_ACC_R][TOTAL_ACCESS] = 1214162
	Total_core_cache_stats_breakdown[GLOBAL_ACC_W][TOTAL_ACCESS] = 487468
	Total_core_cache_stats_breakdown[GLOBAL_ACC_R]_miss_rate = 0.4507
RT_Total_core_cache_stats_breakdown:
	rt_read_cold_miss = 3022
	rt_read_other_miss = 11491
	rt_stats[READ][HIT] = 194413
	rt_stats[READ][HIT_RESERVED] = 0
	rt_stats[READ][MISS] = 14513
	rt_stats[READ][RESERVATION_FAIL] = 5383
	rt_stats[READ][SECTOR_MISS] = 2746
	rt_read_miss_rate = 0.0815
	rt_stats[WRITE][HIT] = 0
	rt_stats[WRITE][HIT_RESERVED] = 0
	rt_stats[WRITE][MISS] = 104908
	rt_stats[WRITE][RESERVATION_FAIL] = 23936
	rt_stats[WRITE][SECTOR_MISS] = 0
	rt_overall_miss_rate = 0.3859

Total_core_cache_fail_stats:
	Total_core_cache_fail_stats_breakdown[GLOBAL_ACC_R][MISS_QUEUE_FULL] = 28681
	Total_core_cache_fail_stats_breakdown[GLOBAL_ACC_R][MSHR_MERGE_ENTRY_FAIL] = 579
	Total_core_cache_fail_stats_breakdown[GLOBAL_ACC_W][MISS_QUEUE_FULL] = 27099
ctas_completed 1, Shader 0 warp_id issue ditsribution:
warp_id:
0, 1, 2, 3, 4, 5, 6, 7, 8, 9, 10, 11, 12, 13, 14, 15, 
distro:
83703, 76839, 77182, 72440, 76148, 77406, 87405, 70958, 77046, 71406, 81927, 83980, 79152, 97127, 85514, 75775, 
gpgpu_n_tot_thrd_icount = 82293152
gpgpu_n_tot_w_icount = 2571661
gpgpu_n_stall_shd_mem = 1174781
gpgpu_n_mem_read_local = 0
gpgpu_n_mem_write_local = 0
gpgpu_n_mem_read_global = 145872
gpgpu_n_mem_write_global = 487468
gpgpu_n_mem_texture = 0
gpgpu_n_mem_const = 0
gpgpu_n_rt_mem:
28725	94103	54844	10858	0	0	23054	0	
gpgpu_n_local_load_insn  = 0
gpgpu_n_local_store_insn = 0
gpgpu_n_global_load_insn  = 1791336
gpgpu_n_global_store_insn = 387620
gpgpu_n_shmem_insn = 0
gpgpu_n_sstarr_insn = 0
gpgpu_n_tex_insn = 0
gpgpu_n_const_mem_insn = 0
gpgpu_n_param_mem_insn = 0
gpgpu_n_rt_insn = 28787
gpgpu_n_rt_access_insn = 480311
gpgpu_n_shmem_bkconflict = 0
gpgpu_n_cache_bkconflict = 0
gpgpu_n_intrawarp_mshr_merge = 0
gpgpu_n_cmem_portconflict = 0
gpgpu_stall_shd_mem[c_mem][resource_stall] = 0
gpgpu_stall_shd_mem[s_mem][bk_conf] = 0
gpgpu_stall_shd_mem[gl_mem][resource_stall] = 1174781
gpgpu_stall_shd_mem[gl_mem][coal_stall] = 0
gpgpu_stall_shd_mem[gl_mem][data_port_stall] = 0
gpu_reg_bank_conflict_stalls = 0
rt_avg_warp_latency = 1068.687256
rt_avg_thread_latency = 182.837799
rt_avg_efficiency = 0.179559
rt_avg_warp_occupancy = 0.481956
rt_total_cacheline_fetched = 106197	103622	
rt_total_intersection_stages = 1603420	1702424	
rt_op_intensity = 15.098543	16.429174	
rt_perf = 2.277168	2.360864	
rt_avg_op_intensity = 15.763859
rt_avg_performance = 2.319016
rt_writes = 104908
rt_max_mem_store_q = 666
rt_avg_mem_store_cycles = 64422.000000
rt_cycles = 0.660906
rt_total_cycles = 712615.500000
rt_total_cycles_sum = 1425231
rt_cycles_dist:	704129	721102
rt_store_cycles_dist:	62011	66833
rt_latency_dist = 0.00	0.00	210.07	76.18	993.49	0.00	158.49	4.68	2.60	25.36	0.00	18.96	32.62	20.30	52.41	
warp_dist_rt = 1272935	620058	188871	7920	3083	12039	546	18	0	0	3483	
warp_dist_empty = 145753	67791	36549	20195	26345	1812320	0	0	0	0	0	
Warp Occupancy Distribution:
Stall:2476691	W0_Idle:366467	W0_Scoreboard:3020993	W1:1083772	W2:264344	W3:177652	W4:109254	W5:61894	W6:55929	W7:45351	W8:41620	W9:25147	W10:20230	W11:17854	W12:16271	W13:14936	W14:15606	W15:13547	W16:15466	W17:14092	W18:10564	W19:10899	W20:9674	W21:6241	W22:8475	W23:13082	W24:10431	W25:8744	W26:11740	W27:9695	W28:5247	W29:10306	W30:7687	W31:218397	W32:237514
single_issue_nums: WS0:653328	WS1:634616	WS2:650465	WS3:633252	
dual_issue_nums: WS0:0	WS1:0	WS2:0	WS3:0	
traffic_breakdown_coretomem[GLOBAL_ACC_R] = 1166976 {8:145872,}
traffic_breakdown_coretomem[GLOBAL_ACC_W] = 19498720 {40:487468,}
traffic_breakdown_memtocore[GLOBAL_ACC_R] = 5834880 {40:145872,}
traffic_breakdown_memtocore[GLOBAL_ACC_W] = 3899744 {8:487468,}
maxmflatency = 3529 
max_icnt2mem_latency = 2121 
maxmrqlatency = 1885 
max_icnt2sh_latency = 2 
averagemflatency = 423 
avg_icnt2mem_latency = 151 
avg_mrq_latency = 156 
avg_icnt2sh_latency = 2 
mrq_lat_table:33486 	2153 	2591 	6092 	20426 	22551 	29912 	36623 	30280 	10924 	1142 	0 	0 	0 	0 	0 	0 	0 	0 	0 	0 	0 	0 	0 	0 	0 	0 	0 	0 	0 	0 	0 	
dq_lat_table:0 	0 	0 	0 	0 	0 	0 	0 	0 	0 	0 	0 	0 	0 	0 	0 	0 	0 	0 	0 	0 	0 	0 	0 	0 	0 	0 	0 	0 	0 	0 	0 	
mf_lat_table:0 	0 	0 	0 	0 	0 	0 	269015 	213681 	111681 	36468 	2495 	0 	0 	0 	0 	0 	0 	0 	0 	0 	0 	0 	0 	0 	0 	0 	0 	0 	0 	0 	0 	
icnt2mem_lat_table:0 	19608 	12808 	10950 	199005 	117709 	91830 	75215 	61426 	31298 	13416 	75 	0 	0 	0 	0 	0 	0 	0 	0 	0 	0 	0 	0 	
icnt2sh_lat_table:0 	633340 	0 	0 	0 	0 	0 	0 	0 	0 	0 	0 	0 	0 	0 	0 	0 	0 	0 	0 	0 	0 	0 	0 	
mf_lat_pw_table:0 	0 	0 	0 	0 	0 	0 	564 	1181 	271 	89 	2 	0 	0 	0 	0 	0 	0 	0 	0 	0 	0 	0 	0 	0 	0 	0 	0 	0 	0 	0 	0 	
maximum concurrent accesses to same row:
dram[0]:        19        32        20        32        21        32        17        32        19        32        17        32        20        32        20        32 
maximum service time to same row:
dram[0]:     31794     39161     10430     18989     15306     19874     10691     21016     10872     17983     15408     12386     52945     16586     10482     24700 
average row accesses per activate:
dram[0]:  2.628935  6.446675  2.539434  5.868496  2.684855  8.187708  2.283311  6.645778  2.469658  5.435241  2.555425  6.083941  2.661912  5.792442  2.687705  5.616202 
average row locality = 196180/57624 = 3.404484
number of total memory accesses made:
dram[0]:         0         0         0         0         0         0         0         0         0         0         0         0         0         0         0         0 
total accesses: 0
min_bank_accesses = 0!
min_chip_accesses = 0!
number of total read accesses:
dram[0]:     13502     18880     11734     17904     11852     18286     10280     17888     14212     19674     15936     18938     17168     19136     19204     20582 
total dram reads = 265176
bank skew: 20582/10280 = 2.00
chip skew: 265176/265176 = 1.00
number of total write accesses:
dram[0]:     20536      4356     20688      5712     17632      3210     20322      5260     20902      4390     20950      2642     23162      4636     23358      3866 
total dram writes = 201622
bank skew: 23358/2642 = 8.84
chip skew: 201622/201622 = 1.00
average mf latency per bank:
dram[0]:        729       352       711       355       725       332       733       340       720       355       743       342       716       360       710       344
maximum mf latency per bank:
dram[0]:       2649      2640      2690      2758      2662      2345      2655      3046      3529      2243      2953      2908      2594      2987      2829      2552
DRAM[0]: 16 bks, busW=2 BL=8 CL=20, tRRD=10 tCCD=4, tRCD=20 tRAS=50 tRP=20 tRC=62
n_cmd=2764718 n_nop=2199052 n_act=57624 n_pre=57608 n_ref_event=4525216909631963960 n_req=196181 n_rd=265176 n_rd_L2_A=0 n_write=0 n_wr_bk=201616 bw_util=0.6754
n_activity=2205146 dram_eff=0.8467
bk0: 13502a 1507805i bk1: 18880a 2228608i bk2: 11734a 1526702i bk3: 17904a 2186925i bk4: 11852a 1600732i bk5: 18286a 2317415i bk6: 10280a 1495594i bk7: 17888a 2216887i bk8: 14212a 1389936i bk9: 19674a 2125252i bk10: 15936a 1359762i bk11: 18938a 2243075i bk12: 17168a 1323534i bk13: 19136a 2187388i bk14: 19204a 1264093i bk15: 20582a 2146917i 

------------------------------------------------------------------------

Row_Buffer_Locality = 0.706270
Row_Buffer_Locality_read = 0.851857
Row_Buffer_Locality_write = 0.402724
Bank_Level_Parallism = 7.124240
Bank_Level_Parallism_Col = 0.000000
Bank_Level_Parallism_Ready = 3.302159
write_to_read_ratio_blp_rw_average = 0.000000
GrpLevelPara = 0.000000 

BW Util details:
bwutil = 0.675356 
total_CMD = 2764718 
util_bw = 1867168 
Wasted_Col = 203165 
Wasted_Row = 81635 
Idle = 612750 

BW Util Bottlenecks: 
RCDc_limit = 80196 
RCDWRc_limit = 67195 
WTRc_limit = 232460 
RTWc_limit = 271109 
CCDLc_limit = 0 
rwq = 0 
CCDLc_limit_alone = 0 
WTRc_limit_alone = 232460 
RTWc_limit_alone = 271109 

Commands details: 
total_CMD = 2764718 
n_nop = 2199052 
Read = 265176 
Write = 0 
L2_Alloc = 0 
L2_WB = 201616 
n_act = 57624 
n_pre = 57608 
n_ref = 4525216909631963960 
n_req = 196181 
total_req = 466792 

Dual Bus Interface Util: 
issued_total_row = 115232 
issued_total_col = 466792 
Row_Bus_Util =  0.041679 
CoL_Bus_Util = 0.168839 
Either_Row_CoL_Bus_Util = 0.204602 
Issued_on_Two_Bus_Simul_Util = 0.005917 
issued_two_Eff = 0.028918 
queue_avg = 28.509951 


dram_util_bins: 0 0 0 0 0 0 0 0 0 0
dram_eff_bins: 0 0 0 0 0 0 0 0 0 0
mrqq: max=64 avg=28.51

========= L2 cache stats =========
L2_cache_bank[0]: Access = 633340, Miss = 438924, Miss_rate = 0.693, Pending_hits = 472, Reservation_fails = 1444
L2_total_cache_accesses = 633340
L2_total_cache_misses = 438924
L2_total_cache_miss_rate = 0.6930
L2_total_cache_pending_hits = 472
L2_total_cache_reservation_fails = 1444
L2_total_cache_breakdown:
	L2_cache_stats_breakdown[GLOBAL_ACC_R][HIT] = 13092
	L2_cache_stats_breakdown[GLOBAL_ACC_R][HIT_RESERVED] = 192
	L2_cache_stats_breakdown[GLOBAL_ACC_R][MISS] = 59221
	L2_cache_stats_breakdown[GLOBAL_ACC_R][RESERVATION_FAIL] = 1444
	L2_cache_stats_breakdown[GLOBAL_ACC_R][SECTOR_MISS] = 73367
	L2_cache_stats_breakdown[LOCAL_ACC_R][HIT] = 0
	L2_cache_stats_breakdown[LOCAL_ACC_R][HIT_RESERVED] = 0
	L2_cache_stats_breakdown[LOCAL_ACC_R][MISS] = 0
	L2_cache_stats_breakdown[LOCAL_ACC_R][RESERVATION_FAIL] = 0
	L2_cache_stats_breakdown[LOCAL_ACC_R][SECTOR_MISS] = 0
	L2_cache_stats_breakdown[CONST_ACC_R][HIT] = 0
	L2_cache_stats_breakdown[CONST_ACC_R][HIT_RESERVED] = 0
	L2_cache_stats_breakdown[CONST_ACC_R][MISS] = 0
	L2_cache_stats_breakdown[CONST_ACC_R][RESERVATION_FAIL] = 0
	L2_cache_stats_breakdown[CONST_ACC_R][SECTOR_MISS] = 0
	L2_cache_stats_breakdown[TEXTURE_ACC_R][HIT] = 0
	L2_cache_stats_breakdown[TEXTURE_ACC_R][HIT_RESERVED] = 0
	L2_cache_stats_breakdown[TEXTURE_ACC_R][MISS] = 0
	L2_cache_stats_breakdown[TEXTURE_ACC_R][RESERVATION_FAIL] = 0
	L2_cache_stats_breakdown[TEXTURE_ACC_R][SECTOR_MISS] = 0
	L2_cache_stats_breakdown[GLOBAL_ACC_W][HIT] = 180852
	L2_cache_stats_breakdown[GLOBAL_ACC_W][HIT_RESERVED] = 280
	L2_cache_stats_breakdown[GLOBAL_ACC_W][MISS] = 47168
	L2_cache_stats_breakdown[GLOBAL_ACC_W][RESERVATION_FAIL] = 0
	L2_cache_stats_breakdown[GLOBAL_ACC_W][SECTOR_MISS] = 259168
	L2_cache_stats_breakdown[BRU_ST_SPILL][HIT] = 0
	L2_cache_stats_breakdown[BRU_ST_SPILL][HIT_RESERVED] = 0
	L2_cache_stats_breakdown[BRU_ST_SPILL][MISS] = 0
	L2_cache_stats_breakdown[BRU_ST_SPILL][RESERVATION_FAIL] = 0
	L2_cache_stats_breakdown[BRU_ST_SPILL][SECTOR_MISS] = 0
	L2_cache_stats_breakdown[BRU_ST_FILL][HIT] = 0
	L2_cache_stats_breakdown[BRU_ST_FILL][HIT_RESERVED] = 0
	L2_cache_stats_breakdown[BRU_ST_FILL][MISS] = 0
	L2_cache_stats_breakdown[BRU_ST_FILL][RESERVATION_FAIL] = 0
	L2_cache_stats_breakdown[BRU_ST_FILL][SECTOR_MISS] = 0
	L2_cache_stats_breakdown[BRU_RT_SPILL][HIT] = 0
	L2_cache_stats_breakdown[BRU_RT_SPILL][HIT_RESERVED] = 0
	L2_cache_stats_breakdown[BRU_RT_SPILL][MISS] = 0
	L2_cache_stats_breakdown[BRU_RT_SPILL][RESERVATION_FAIL] = 0
	L2_cache_stats_breakdown[BRU_RT_SPILL][SECTOR_MISS] = 0
	L2_cache_stats_breakdown[BRU_RT_FILL][HIT] = 0
	L2_cache_stats_breakdown[BRU_RT_FILL][HIT_RESERVED] = 0
	L2_cache_stats_breakdown[BRU_RT_FILL][MISS] = 0
	L2_cache_stats_breakdown[BRU_RT_FILL][RESERVATION_FAIL] = 0
	L2_cache_stats_breakdown[BRU_RT_FILL][SECTOR_MISS] = 0
	L2_cache_stats_breakdown[LOCAL_ACC_W][HIT] = 0
	L2_cache_stats_breakdown[LOCAL_ACC_W][HIT_RESERVED] = 0
	L2_cache_stats_breakdown[LOCAL_ACC_W][MISS] = 0
	L2_cache_stats_breakdown[LOCAL_ACC_W][RESERVATION_FAIL] = 0
	L2_cache_stats_breakdown[LOCAL_ACC_W][SECTOR_MISS] = 0
	L2_cache_stats_breakdown[L1_WRBK_ACC][HIT] = 0
	L2_cache_stats_breakdown[L1_WRBK_ACC][HIT_RESERVED] = 0
	L2_cache_stats_breakdown[L1_WRBK_ACC][MISS] = 0
	L2_cache_stats_breakdown[L1_WRBK_ACC][RESERVATION_FAIL] = 0
	L2_cache_stats_breakdown[L1_WRBK_ACC][SECTOR_MISS] = 0
	L2_cache_stats_breakdown[L2_WRBK_ACC][HIT] = 0
	L2_cache_stats_breakdown[L2_WRBK_ACC][HIT_RESERVED] = 0
	L2_cache_stats_breakdown[L2_WRBK_ACC][MISS] = 0
	L2_cache_stats_breakdown[L2_WRBK_ACC][RESERVATION_FAIL] = 0
	L2_cache_stats_breakdown[L2_WRBK_ACC][SECTOR_MISS] = 0
	L2_cache_stats_breakdown[INST_ACC_R][HIT] = 0
	L2_cache_stats_breakdown[INST_ACC_R][HIT_RESERVED] = 0
	L2_cache_stats_breakdown[INST_ACC_R][MISS] = 0
	L2_cache_stats_breakdown[INST_ACC_R][RESERVATION_FAIL] = 0
	L2_cache_stats_breakdown[INST_ACC_R][SECTOR_MISS] = 0
	L2_cache_stats_breakdown[L1_WR_ALLOC_R][HIT] = 0
	L2_cache_stats_breakdown[L1_WR_ALLOC_R][HIT_RESERVED] = 0
	L2_cache_stats_breakdown[L1_WR_ALLOC_R][MISS] = 0
	L2_cache_stats_breakdown[L1_WR_ALLOC_R][RESERVATION_FAIL] = 0
	L2_cache_stats_breakdown[L1_WR_ALLOC_R][SECTOR_MISS] = 0
	L2_cache_stats_breakdown[L2_WR_ALLOC_R][HIT] = 0
	L2_cache_stats_breakdown[L2_WR_ALLOC_R][HIT_RESERVED] = 0
	L2_cache_stats_breakdown[L2_WR_ALLOC_R][MISS] = 0
	L2_cache_stats_breakdown[L2_WR_ALLOC_R][RESERVATION_FAIL] = 0
	L2_cache_stats_breakdown[L2_WR_ALLOC_R][SECTOR_MISS] = 0
	L2_cache_stats_breakdown[GLOBAL_ACC_R][TOTAL_ACCESS] = 145872
	L2_cache_stats_breakdown[GLOBAL_ACC_W][TOTAL_ACCESS] = 487468
	L2_cache_stats_breakdown[GLOBAL_ACC_R]_miss_rate = 0.9089
RT_L2_cache_stats_breakdown:
	rt_read_cold_miss = 710
	rt_read_other_miss = 3950
	rt_stats[READ][HIT] = 1747
	rt_stats[READ][HIT_RESERVED] = 139
	rt_stats[READ][MISS] = 4660
	rt_stats[READ][RESERVATION_FAIL] = 16
	rt_stats[READ][SECTOR_MISS] = 8860
	rt_read_miss_rate = 0.8776
	rt_stats[WRITE][HIT] = 70551
	rt_stats[WRITE][HIT_RESERVED] = 0
	rt_stats[WRITE][MISS] = 14295
	rt_stats[WRITE][RESERVATION_FAIL] = 0
	rt_stats[WRITE][SECTOR_MISS] = 20062
	rt_overall_miss_rate = 0.3979
L2_total_cache_reservation_fail_breakdown:
	L2_cache_stats_fail_breakdown[GLOBAL_ACC_R][MISS_QUEUE_FULL] = 341
	L2_cache_stats_fail_breakdown[GLOBAL_ACC_R][MSHR_ENTRY_FAIL] = 1103
L2_cache_data_port_util = 0.221
L2_cache_fill_port_util = 0.123
Stats for Kernel 0 Classification

Min 0.000000 Max 15.000000 Average 3.117958 
[ 314752 18283155 0 879998 271007 2168540 0 0 0 0 0 1000237 28787 81241 0 2234076 0 0 0 0 0 0 0 0 0 ]
Stats for Kernel 0 OP Classification

Min 0.000000 Max 147.000000 Average 39.150998 
[ 98360 4313214 0 0 230694 0 0 0 0 0 0 1047973 0 0 0 0 0 0 0 0 0 0 0 208398 0 0 0 2100 0 0 0 1791336 0 2100 0 0 0 0 18412 0 36824 7281937 0 2981179 537720 0 0 28787 72577 0 0 0 0 0 0 147678 0 0 146777 0 39203 0 211492 961561 0 0 322896 322896 0 0 79926 0 0 377204 0 0 0 0 0 0 0 0 0 0 0 0 0 0 0 0 0 0 0 645792 0 0 0 10416 28787 1147014 ]
Ray tracing memory access distribution: 
81707	240776	52920	52454	0	0	52454	0	
rt_num_hits = 0
rt_num_any_hits = 0
rt_n_anyhit_rays = 0
rt_n_closesthit_rays = 28787
rt_n_total_rays = 28787
rt_max_tree_depth = 7
rt_max_nodes_per_ray = 79
rt_tot_nodes_per_ray = 346150
rt_avg_nodes_per_ray = 12.024525
g_inst_type_latency = 0 9819632 3288511 0 0 5667665 2371194 0 49351115 0 0 3178022 3468483 900794 0 0 66501 92975 0 0 0 0 0 0 0 0 0 0 
inst_class_by_shader
0:198979	7701770	0	600672	52080	665337	0	0	0	0	0	337794	28787	81241	0	65536	0	0	0	0	
1:10375	487625	0	20750	10375	93375	0	0	0	0	0	31125	0	0	0	0	0	0	0	0	
2:0	0	0	0	0	0	0	0	0	0	0	0	0	0	0	0	0	0	0	0	
3:36824	6852222	0	109878	120972	681244	0	0	0	0	0	239356	0	0	0	0	0	0	0	0	
4:0	0	0	0	0	0	0	0	0	0	0	0	0	0	0	0	0	0	0	0	
5:0	0	0	0	0	0	0	0	0	0	0	0	0	0	0	0	0	0	0	0	
6:68574	3241538	0	148698	87580	728584	0	0	0	0	0	391962	0	0	0	0	0	0	0	0	
7:0	0	0	0	0	0	0	0	0	0	0	0	0	0	0	0	0	0	0	0	
8:0	0	0	0	0	0	0	0	0	0	0	0	0	0	0	0	0	0	0	0	
9:0	0	0	0	0	0	0	0	0	0	0	0	0	0	0	0	0	0	0	0	
10:0	0	0	0	0	0	0	0	0	0	0	0	0	0	0	0	0	0	0	0	
11:0	0	0	0	0	0	0	0	0	0	0	0	0	0	0	0	0	0	0	0	
12:0	0	0	0	0	0	0	0	0	0	0	0	0	0	0	0	0	0	0	0	
13:0	0	0	0	0	0	0	0	0	0	0	0	0	0	0	0	0	0	0	0	
14:0	0	0	0	0	0	0	0	0	0	0	0	0	0	0	0	0	0	0	0	
15:0	0	0	0	0	0	0	0	0	0	0	0	0	0	0	0	0	0	0	0	

icnt_total_pkts_mem_to_simt=633340
icnt_total_pkts_simt_to_mem=633340
LD_mem_lat_dist  0 0 2.41808 0 0 0 0 105.646 163.071 18.47 2.07659 26.1481 118.412 97.3133 27.4137 14.2453 6.84467 0.877775 0.349994 0 10.3747 1 1 0 0 0 0
ST_mem_lat_dist  0 0 0 0 0 0 0 6.64028 114.28 163.311 0 0 0 0 0 0 0 0 0 0 14.4483 14.5864 1 1 0 0 0
----------------------------Interconnect-DETAILS--------------------------------
Req_Network_injected_packets_num = 633340
Req_Network_cycles = 1078241
Req_Network_injected_packets_per_cycle =       0.5874 
Req_Network_conflicts_per_cycle =       0.2561
Req_Network_conflicts_per_cycle_util =       0.4333
Req_Bank_Level_Parallism =       0.9939
Req_Network_in_buffer_full_per_cycle =       0.0045
Req_Network_in_buffer_avg_util =      21.5800
Req_Network_out_buffer_full_per_cycle =       0.0036
Req_Network_out_buffer_avg_util =      33.5514

Reply_Network_injected_packets_num = 633340
Reply_Network_cycles = 1078241
Reply_Network_injected_packets_per_cycle =        0.5874
Reply_Network_conflicts_per_cycle =        0.0000
Reply_Network_conflicts_per_cycle_util =       0.0000
Reply_Bank_Level_Parallism =       1.0000
Reply_Network_in_buffer_full_per_cycle =       0.0000
Reply_Network_in_buffer_avg_util =       0.0000
Reply_Network_out_buffer_full_per_cycle =       0.0000
Reply_Network_out_buffer_avg_util =       0.2937
----------------------------END-of-Interconnect-DETAILS-------------------------


gpgpu_simulation_time = 0 days, 0 hrs, 3 min, 11 sec (191 sec)
gpgpu_simulation_rate = 119259 (inst/sec)
gpgpu_simulation_rate = 5645 (cycle/sec)
gpgpu_silicon_slowdown = 241806x
Shader 0 trace_ray added.
Shader 1 trace_ray added.
Shader 2 trace_ray added.
Shader 3 trace_ray added.
Shader 4 trace_ray added.
Shader 5 trace_ray added.
Shader 6 trace_ray added.
Shader 7 trace_ray added.
Shader 8 trace_ray added.
Shader 9 trace_ray added.
Destroy streams for kernel 1: size 0
Max simulated kernels of 1 has reached, exiting.
GPGPU-Sim: *** exit detected ***
